version 2
run veins-0-20250201-20:12:54-137599
attr configname veins
attr datetime 20250201-20:12:54
attr experiment veins
attr inifile omnetpp.ini
attr iterationvars ""
attr iterationvarsf ""
attr measurement ""
attr network artery.veins.World
attr processid 137599
attr repetition 0
attr replication #0
attr resultdir results
attr runnumber 0
attr seedset 0
param *.playgroundSizeX 2000m
param *.playgroundSizeY 1200m
param *.playgroundSizeZ 50m
param *.connectionManager.maxInterfDist 500m
param *.connectionManager.sendDirect true
param *.connectionManager.coreDebug false
param *.node[*].nic.mac1609_4.txPower 200mW
param *.node[*].nic.phy80211p.decider "xmldoc(\"config.xml\")"
param *.node[*].nic.phy80211p.analogueModels "xmldoc(\"config.xml\")"
param *.node[*].appl.middleware.updateInterval 0.1s
param *.node[*].appl.middleware.datetime "\"2025-03-10 00:00:00\""
param *.node[*].appl.middleware.services "xmldoc(\"services.xml\")"
param *.node[*].appl.middleware.DenService.useCases "xmldoc(\"den-use-cases.xml\")"
param *.withStoryboard true
param *.storyboard.python "\"demo\""
param *.traci.launcher.additionalOptions "\"--log-buffered --log-file=sumo_warnings.log\""
param *.traci.core.version -1
param *.traci.launcher.typename "\"PosixLauncher\""
param *.traci.launcher.sumocfg "\"Slott.sumo.cfg\""
param *.traci.launcher.sumo "\"sumo\""
param *.node[*].wlan[*].typename "\"VanetNic\""
param *.node[*].wlan[*].radio.channelNumber 180
param *.node[*].wlan[*].radio.carrierFrequency "5.9 GHz"
param *.node[*].wlan[*].radio.transmitter.power "200 mW"
param *.node[*].middleware.updateInterval 0.1s
param *.node[*].middleware.datetime "\"2025-03-10 00:00:00\""
param *.node[*].middleware.services "xmldoc(\"services.xml\")"
param *.node[*].middleware.DenService.useCases "xmldoc(\"den-use-cases.xml\")"

scalar World.traci.launcher port 49019
scalar World.node[12].appl.middleware.DenService transmission:count 12
attr source DenmSent
scalar World.node[12].appl.middleware.DenService reception:count 2620
attr source DenmReceived
scalar World.node[12].nic.phy80211p busyTime 0.057913628318581
scalar World.node[12].nic.mac1609_4 ReceivedUnicastPackets 0
scalar World.node[12].nic.mac1609_4 ReceivedBroadcasts 3066
scalar World.node[12].nic.mac1609_4 SentPackets 187
scalar World.node[12].nic.mac1609_4 SentAcknowledgements 0
scalar World.node[12].nic.mac1609_4 RetriesExceeded 0
scalar World.node[12].nic.mac1609_4 SNIRLostPackets 3
scalar World.node[12].nic.mac1609_4 RXTXLostPackets 0
scalar World.node[12].nic.mac1609_4 TotalLostPackets 3
scalar World.node[12].nic.mac1609_4 DroppedPacketsInMac 0
scalar World.node[12].nic.mac1609_4 TooLittleTime 0
scalar World.node[12].nic.mac1609_4 TimesIntoBackoff 187
scalar World.node[12].nic.mac1609_4 SlotsBackoff 1280
scalar World.node[12].nic.mac1609_4 NumInternalContention 0
scalar World.node[12].nic.mac1609_4 totalBusyTime 0.694011
scalar World.node[12].nic.mac1609_4 retriesExceeded:count 0
attr source org_car2x_veins_modules_mac_sigRetriesExceeded
scalar World.node[12].nic.mac1609_4 sentAcks:count 0
attr source org_car2x_veins_modules_mac_sigSentAck
scalar World.node[12].nic.mac1609_4 sentPackets:count 187
attr source org_car2x_veins_modules_mac_sigSentPacket
scalar World.node[12].nic.mac1609_4 collisions:count 0
attr source org_car2x_veins_modules_mac_sigCollision
scalar World.node[12].nic.mac1609_4 channelBusy:timeavg 0.061416902654864
attr source org_car2x_veins_modules_mac_sigChannelBusy
scalar World.node[4].appl.middleware.DenService transmission:count 107
attr source DenmSent
scalar World.node[4].appl.middleware.DenService reception:count 2799
attr source DenmReceived
scalar World.node[4].nic.phy80211p busyTime 0.041736153846152
scalar World.node[4].nic.mac1609_4 ReceivedUnicastPackets 0
scalar World.node[4].nic.mac1609_4 ReceivedBroadcasts 3988
scalar World.node[4].nic.mac1609_4 SentPackets 244
scalar World.node[4].nic.mac1609_4 SentAcknowledgements 0
scalar World.node[4].nic.mac1609_4 RetriesExceeded 0
scalar World.node[4].nic.mac1609_4 SNIRLostPackets 9
scalar World.node[4].nic.mac1609_4 RXTXLostPackets 0
scalar World.node[4].nic.mac1609_4 TotalLostPackets 9
scalar World.node[4].nic.mac1609_4 DroppedPacketsInMac 0
scalar World.node[4].nic.mac1609_4 TooLittleTime 0
scalar World.node[4].nic.mac1609_4 TimesIntoBackoff 245
scalar World.node[4].nic.mac1609_4 SlotsBackoff 1201
scalar World.node[4].nic.mac1609_4 NumInternalContention 0
scalar World.node[4].nic.mac1609_4 totalBusyTime 0.918868
scalar World.node[4].nic.mac1609_4 retriesExceeded:count 0
attr source org_car2x_veins_modules_mac_sigRetriesExceeded
scalar World.node[4].nic.mac1609_4 sentAcks:count 0
attr source org_car2x_veins_modules_mac_sigSentAck
scalar World.node[4].nic.mac1609_4 sentPackets:count 244
attr source org_car2x_veins_modules_mac_sigSentPacket
scalar World.node[4].nic.mac1609_4 collisions:count 0
attr source org_car2x_veins_modules_mac_sigCollision
scalar World.node[4].nic.mac1609_4 channelBusy:timeavg 0.044176346153844
attr source org_car2x_veins_modules_mac_sigChannelBusy
scalar World.node[13].appl.middleware.DenService transmission:count 51
attr source DenmSent
scalar World.node[13].appl.middleware.DenService reception:count 3800
attr source DenmReceived
scalar World.node[13].nic.phy80211p busyTime 0.064844736842102
scalar World.node[13].nic.mac1609_4 ReceivedUnicastPackets 0
scalar World.node[13].nic.mac1609_4 ReceivedBroadcasts 4614
scalar World.node[13].nic.mac1609_4 SentPackets 253
scalar World.node[13].nic.mac1609_4 SentAcknowledgements 0
scalar World.node[13].nic.mac1609_4 RetriesExceeded 0
scalar World.node[13].nic.mac1609_4 SNIRLostPackets 37
scalar World.node[13].nic.mac1609_4 RXTXLostPackets 0
scalar World.node[13].nic.mac1609_4 TotalLostPackets 37
scalar World.node[13].nic.mac1609_4 DroppedPacketsInMac 0
scalar World.node[13].nic.mac1609_4 TooLittleTime 0
scalar World.node[13].nic.mac1609_4 TimesIntoBackoff 279
scalar World.node[13].nic.mac1609_4 SlotsBackoff 1814
scalar World.node[13].nic.mac1609_4 NumInternalContention 0
scalar World.node[13].nic.mac1609_4 totalBusyTime 1.035397076843
scalar World.node[13].nic.mac1609_4 retriesExceeded:count 0
attr source org_car2x_veins_modules_mac_sigRetriesExceeded
scalar World.node[13].nic.mac1609_4 sentAcks:count 0
attr source org_car2x_veins_modules_mac_sigSentAck
scalar World.node[13].nic.mac1609_4 sentPackets:count 253
attr source org_car2x_veins_modules_mac_sigSentPacket
scalar World.node[13].nic.mac1609_4 collisions:count 0
attr source org_car2x_veins_modules_mac_sigCollision
scalar World.node[13].nic.mac1609_4 channelBusy:timeavg 0.068118228739667
attr source org_car2x_veins_modules_mac_sigChannelBusy
scalar World.node[28].appl.middleware.DenService transmission:count 0
attr source DenmSent
scalar World.node[28].appl.middleware.DenService reception:count 760
attr source DenmReceived
scalar World.node[28].nic.phy80211p busyTime 0.087824761904763
scalar World.node[28].nic.mac1609_4 ReceivedUnicastPackets 0
scalar World.node[28].nic.mac1609_4 ReceivedBroadcasts 865
scalar World.node[28].nic.mac1609_4 SentPackets 34
scalar World.node[28].nic.mac1609_4 SentAcknowledgements 0
scalar World.node[28].nic.mac1609_4 RetriesExceeded 0
scalar World.node[28].nic.mac1609_4 SNIRLostPackets 15
scalar World.node[28].nic.mac1609_4 RXTXLostPackets 0
scalar World.node[28].nic.mac1609_4 TotalLostPackets 15
scalar World.node[28].nic.mac1609_4 DroppedPacketsInMac 0
scalar World.node[28].nic.mac1609_4 TooLittleTime 0
scalar World.node[28].nic.mac1609_4 TimesIntoBackoff 34
scalar World.node[28].nic.mac1609_4 SlotsBackoff 256
scalar World.node[28].nic.mac1609_4 NumInternalContention 0
scalar World.node[28].nic.mac1609_4 totalBusyTime 0.189402767345
scalar World.node[28].nic.mac1609_4 retriesExceeded:count 0
attr source org_car2x_veins_modules_mac_sigRetriesExceeded
scalar World.node[28].nic.mac1609_4 sentAcks:count 0
attr source org_car2x_veins_modules_mac_sigSentAck
scalar World.node[28].nic.mac1609_4 sentPackets:count 34
attr source org_car2x_veins_modules_mac_sigSentPacket
scalar World.node[28].nic.mac1609_4 collisions:count 0
attr source org_car2x_veins_modules_mac_sigCollision
scalar World.node[28].nic.mac1609_4 channelBusy:timeavg 0.090191793973811
attr source org_car2x_veins_modules_mac_sigChannelBusy
scalar World.node[20].appl.middleware.DenService transmission:count 34
attr source DenmSent
scalar World.node[20].appl.middleware.DenService reception:count 4754
attr source DenmReceived
scalar World.node[20].nic.phy80211p busyTime 0.086797629629624
scalar World.node[20].nic.mac1609_4 ReceivedUnicastPackets 0
scalar World.node[20].nic.mac1609_4 ReceivedBroadcasts 5482
scalar World.node[20].nic.mac1609_4 SentPackets 224
scalar World.node[20].nic.mac1609_4 SentAcknowledgements 0
scalar World.node[20].nic.mac1609_4 RetriesExceeded 0
scalar World.node[20].nic.mac1609_4 SNIRLostPackets 95
scalar World.node[20].nic.mac1609_4 RXTXLostPackets 0
scalar World.node[20].nic.mac1609_4 TotalLostPackets 95
scalar World.node[20].nic.mac1609_4 DroppedPacketsInMac 0
scalar World.node[20].nic.mac1609_4 TooLittleTime 0
scalar World.node[20].nic.mac1609_4 TimesIntoBackoff 224
scalar World.node[20].nic.mac1609_4 SlotsBackoff 1246
scalar World.node[20].nic.mac1609_4 NumInternalContention 0
scalar World.node[20].nic.mac1609_4 totalBusyTime 1.206816967105
scalar World.node[20].nic.mac1609_4 retriesExceeded:count 0
attr source org_car2x_veins_modules_mac_sigRetriesExceeded
scalar World.node[20].nic.mac1609_4 sentAcks:count 0
attr source org_car2x_veins_modules_mac_sigSentAck
scalar World.node[20].nic.mac1609_4 sentPackets:count 224
attr source org_car2x_veins_modules_mac_sigSentPacket
scalar World.node[20].nic.mac1609_4 collisions:count 0
attr source org_car2x_veins_modules_mac_sigCollision
scalar World.node[20].nic.mac1609_4 channelBusy:timeavg 0.089393849415179
attr source org_car2x_veins_modules_mac_sigChannelBusy
scalar World.node[14].appl.middleware.DenService transmission:count 90
attr source DenmSent
scalar World.node[14].appl.middleware.DenService reception:count 6900
attr source DenmReceived
scalar World.node[14].nic.phy80211p busyTime 0.077698295964119
scalar World.node[14].nic.mac1609_4 ReceivedUnicastPackets 0
scalar World.node[14].nic.mac1609_4 ReceivedBroadcasts 8165
scalar World.node[14].nic.mac1609_4 SentPackets 371
scalar World.node[14].nic.mac1609_4 SentAcknowledgements 0
scalar World.node[14].nic.mac1609_4 RetriesExceeded 0
scalar World.node[14].nic.mac1609_4 SNIRLostPackets 41
scalar World.node[14].nic.mac1609_4 RXTXLostPackets 49
scalar World.node[14].nic.mac1609_4 TotalLostPackets 90
scalar World.node[14].nic.mac1609_4 DroppedPacketsInMac 0
scalar World.node[14].nic.mac1609_4 TooLittleTime 0
scalar World.node[14].nic.mac1609_4 TimesIntoBackoff 642
scalar World.node[14].nic.mac1609_4 SlotsBackoff 3298
scalar World.node[14].nic.mac1609_4 NumInternalContention 0
scalar World.node[14].nic.mac1609_4 totalBusyTime 1.804280491468
scalar World.node[14].nic.mac1609_4 retriesExceeded:count 0
attr source org_car2x_veins_modules_mac_sigRetriesExceeded
scalar World.node[14].nic.mac1609_4 sentAcks:count 0
attr source org_car2x_veins_modules_mac_sigSentAck
scalar World.node[14].nic.mac1609_4 sentPackets:count 371
attr source org_car2x_veins_modules_mac_sigSentPacket
scalar World.node[14].nic.mac1609_4 collisions:count 0
attr source org_car2x_veins_modules_mac_sigCollision
scalar World.node[14].nic.mac1609_4 channelBusy:timeavg 0.080909439079275
attr source org_car2x_veins_modules_mac_sigChannelBusy
scalar World.node[40].appl.middleware.DenService transmission:count 0
attr source DenmSent
scalar World.node[40].appl.middleware.DenService reception:count 52
attr source DenmReceived
scalar World.node[40].nic.phy80211p busyTime 0.1284
scalar World.node[40].nic.mac1609_4 ReceivedUnicastPackets 0
scalar World.node[40].nic.mac1609_4 ReceivedBroadcasts 59
scalar World.node[40].nic.mac1609_4 SentPackets 1
scalar World.node[40].nic.mac1609_4 SentAcknowledgements 0
scalar World.node[40].nic.mac1609_4 RetriesExceeded 0
scalar World.node[40].nic.mac1609_4 SNIRLostPackets 0
scalar World.node[40].nic.mac1609_4 RXTXLostPackets 0
scalar World.node[40].nic.mac1609_4 TotalLostPackets 0
scalar World.node[40].nic.mac1609_4 DroppedPacketsInMac 0
scalar World.node[40].nic.mac1609_4 TooLittleTime 0
scalar World.node[40].nic.mac1609_4 TimesIntoBackoff 1
scalar World.node[40].nic.mac1609_4 SlotsBackoff 0
scalar World.node[40].nic.mac1609_4 NumInternalContention 0
scalar World.node[40].nic.mac1609_4 totalBusyTime 0.013041
scalar World.node[40].nic.mac1609_4 retriesExceeded:count 0
attr source org_car2x_veins_modules_mac_sigRetriesExceeded
scalar World.node[40].nic.mac1609_4 sentAcks:count 0
attr source org_car2x_veins_modules_mac_sigSentAck
scalar World.node[40].nic.mac1609_4 sentPackets:count 1
attr source org_car2x_veins_modules_mac_sigSentPacket
scalar World.node[40].nic.mac1609_4 collisions:count 0
attr source org_car2x_veins_modules_mac_sigCollision
scalar World.node[40].nic.mac1609_4 channelBusy:timeavg 0.13041
attr source org_car2x_veins_modules_mac_sigChannelBusy
scalar World.node[5].appl.middleware.DenService transmission:count 190
attr source DenmSent
scalar World.node[5].appl.middleware.DenService reception:count 10900
attr source DenmReceived
scalar World.node[5].nic.phy80211p busyTime 0.073584950495046
scalar World.node[5].nic.mac1609_4 ReceivedUnicastPackets 0
scalar World.node[5].nic.mac1609_4 ReceivedBroadcasts 13772
scalar World.node[5].nic.mac1609_4 SentPackets 590
scalar World.node[5].nic.mac1609_4 SentAcknowledgements 0
scalar World.node[5].nic.mac1609_4 RetriesExceeded 0
scalar World.node[5].nic.mac1609_4 SNIRLostPackets 250
scalar World.node[5].nic.mac1609_4 RXTXLostPackets 26
scalar World.node[5].nic.mac1609_4 TotalLostPackets 276
scalar World.node[5].nic.mac1609_4 DroppedPacketsInMac 0
scalar World.node[5].nic.mac1609_4 TooLittleTime 0
scalar World.node[5].nic.mac1609_4 TimesIntoBackoff 715
scalar World.node[5].nic.mac1609_4 SlotsBackoff 2723
scalar World.node[5].nic.mac1609_4 NumInternalContention 0
scalar World.node[5].nic.mac1609_4 totalBusyTime 3.066313310763
scalar World.node[5].nic.mac1609_4 retriesExceeded:count 0
attr source org_car2x_veins_modules_mac_sigRetriesExceeded
scalar World.node[5].nic.mac1609_4 sentAcks:count 0
attr source org_car2x_veins_modules_mac_sigSentAck
scalar World.node[5].nic.mac1609_4 sentPackets:count 590
attr source org_car2x_veins_modules_mac_sigSentPacket
scalar World.node[5].nic.mac1609_4 collisions:count 0
attr source org_car2x_veins_modules_mac_sigCollision
scalar World.node[5].nic.mac1609_4 channelBusy:timeavg 0.075898844325813
attr source org_car2x_veins_modules_mac_sigChannelBusy
scalar World.node[37].appl.middleware.DenService transmission:count 10
attr source DenmSent
scalar World.node[37].appl.middleware.DenService reception:count 6609
attr source DenmReceived
scalar World.node[37].nic.phy80211p busyTime 0.12448749999999
scalar World.node[37].nic.mac1609_4 ReceivedUnicastPackets 0
scalar World.node[37].nic.mac1609_4 ReceivedBroadcasts 7421
scalar World.node[37].nic.mac1609_4 SentPackets 212
scalar World.node[37].nic.mac1609_4 SentAcknowledgements 0
scalar World.node[37].nic.mac1609_4 RetriesExceeded 0
scalar World.node[37].nic.mac1609_4 SNIRLostPackets 191
scalar World.node[37].nic.mac1609_4 RXTXLostPackets 0
scalar World.node[37].nic.mac1609_4 TotalLostPackets 191
scalar World.node[37].nic.mac1609_4 DroppedPacketsInMac 0
scalar World.node[37].nic.mac1609_4 TooLittleTime 0
scalar World.node[37].nic.mac1609_4 TimesIntoBackoff 212
scalar World.node[37].nic.mac1609_4 SlotsBackoff 1503
scalar World.node[37].nic.mac1609_4 NumInternalContention 0
scalar World.node[37].nic.mac1609_4 totalBusyTime 1.617404
scalar World.node[37].nic.mac1609_4 retriesExceeded:count 0
attr source org_car2x_veins_modules_mac_sigRetriesExceeded
scalar World.node[37].nic.mac1609_4 sentAcks:count 0
attr source org_car2x_veins_modules_mac_sigSentAck
scalar World.node[37].nic.mac1609_4 sentPackets:count 212
attr source org_car2x_veins_modules_mac_sigSentPacket
scalar World.node[37].nic.mac1609_4 collisions:count 0
attr source org_car2x_veins_modules_mac_sigCollision
scalar World.node[37].nic.mac1609_4 channelBusy:timeavg 0.12635968749999
attr source org_car2x_veins_modules_mac_sigChannelBusy
scalar World.node[27].appl.middleware.DenService transmission:count 0
attr source DenmSent
scalar World.node[27].appl.middleware.DenService reception:count 10602
attr source DenmReceived
scalar World.node[27].nic.phy80211p busyTime 0.11112730434782
scalar World.node[27].nic.mac1609_4 ReceivedUnicastPackets 0
scalar World.node[27].nic.mac1609_4 ReceivedBroadcasts 11922
scalar World.node[27].nic.mac1609_4 SentPackets 383
scalar World.node[27].nic.mac1609_4 SentAcknowledgements 0
scalar World.node[27].nic.mac1609_4 RetriesExceeded 0
scalar World.node[27].nic.mac1609_4 SNIRLostPackets 291
scalar World.node[27].nic.mac1609_4 RXTXLostPackets 0
scalar World.node[27].nic.mac1609_4 TotalLostPackets 291
scalar World.node[27].nic.mac1609_4 DroppedPacketsInMac 0
scalar World.node[27].nic.mac1609_4 TooLittleTime 0
scalar World.node[27].nic.mac1609_4 TimesIntoBackoff 383
scalar World.node[27].nic.mac1609_4 SlotsBackoff 2892
scalar World.node[27].nic.mac1609_4 NumInternalContention 0
scalar World.node[27].nic.mac1609_4 totalBusyTime 2.605057126118
scalar World.node[27].nic.mac1609_4 retriesExceeded:count 0
attr source org_car2x_veins_modules_mac_sigRetriesExceeded
scalar World.node[27].nic.mac1609_4 sentAcks:count 0
attr source org_car2x_veins_modules_mac_sigSentAck
scalar World.node[27].nic.mac1609_4 sentPackets:count 383
attr source org_car2x_veins_modules_mac_sigSentPacket
scalar World.node[27].nic.mac1609_4 collisions:count 0
attr source org_car2x_veins_modules_mac_sigCollision
scalar World.node[27].nic.mac1609_4 channelBusy:timeavg 0.11326335330947
attr source org_car2x_veins_modules_mac_sigChannelBusy
scalar World.node[15].appl.middleware.DenService transmission:count 269
attr source DenmSent
scalar World.node[15].appl.middleware.DenService reception:count 14679
attr source DenmReceived
scalar World.node[15].nic.phy80211p busyTime 0.099074162162158
scalar World.node[15].nic.mac1609_4 ReceivedUnicastPackets 0
scalar World.node[15].nic.mac1609_4 ReceivedBroadcasts 17090
scalar World.node[15].nic.mac1609_4 SentPackets 615
scalar World.node[15].nic.mac1609_4 SentAcknowledgements 0
scalar World.node[15].nic.mac1609_4 RetriesExceeded 0
scalar World.node[15].nic.mac1609_4 SNIRLostPackets 361
scalar World.node[15].nic.mac1609_4 RXTXLostPackets 0
scalar World.node[15].nic.mac1609_4 TotalLostPackets 361
scalar World.node[15].nic.mac1609_4 DroppedPacketsInMac 0
scalar World.node[15].nic.mac1609_4 TooLittleTime 0
scalar World.node[15].nic.mac1609_4 TimesIntoBackoff 1222
scalar World.node[15].nic.mac1609_4 SlotsBackoff 5591
scalar World.node[15].nic.mac1609_4 NumInternalContention 0
scalar World.node[15].nic.mac1609_4 totalBusyTime 3.752242370669
scalar World.node[15].nic.mac1609_4 retriesExceeded:count 0
attr source org_car2x_veins_modules_mac_sigRetriesExceeded
scalar World.node[15].nic.mac1609_4 sentAcks:count 0
attr source org_car2x_veins_modules_mac_sigSentAck
scalar World.node[15].nic.mac1609_4 sentPackets:count 615
attr source org_car2x_veins_modules_mac_sigSentPacket
scalar World.node[15].nic.mac1609_4 collisions:count 0
attr source org_car2x_veins_modules_mac_sigCollision
scalar World.node[15].nic.mac1609_4 channelBusy:timeavg 0.10141195596402
attr source org_car2x_veins_modules_mac_sigChannelBusy
scalar World.node[42].appl.middleware.DenService transmission:count 1
attr source DenmSent
scalar World.node[42].appl.middleware.DenService reception:count 5773
attr source DenmReceived
scalar World.node[42].nic.phy80211p busyTime 0.1341419607843
scalar World.node[42].nic.mac1609_4 ReceivedUnicastPackets 0
scalar World.node[42].nic.mac1609_4 ReceivedBroadcasts 6452
scalar World.node[42].nic.mac1609_4 SentPackets 169
scalar World.node[42].nic.mac1609_4 SentAcknowledgements 0
scalar World.node[42].nic.mac1609_4 RetriesExceeded 0
scalar World.node[42].nic.mac1609_4 SNIRLostPackets 111
scalar World.node[42].nic.mac1609_4 RXTXLostPackets 0
scalar World.node[42].nic.mac1609_4 TotalLostPackets 111
scalar World.node[42].nic.mac1609_4 DroppedPacketsInMac 0
scalar World.node[42].nic.mac1609_4 TooLittleTime 0
scalar World.node[42].nic.mac1609_4 TimesIntoBackoff 169
scalar World.node[42].nic.mac1609_4 SlotsBackoff 1332
scalar World.node[42].nic.mac1609_4 NumInternalContention 0
scalar World.node[42].nic.mac1609_4 totalBusyTime 1.391121
scalar World.node[42].nic.mac1609_4 retriesExceeded:count 0
attr source org_car2x_veins_modules_mac_sigRetriesExceeded
scalar World.node[42].nic.mac1609_4 sentAcks:count 0
attr source org_car2x_veins_modules_mac_sigSentAck
scalar World.node[42].nic.mac1609_4 sentPackets:count 169
attr source org_car2x_veins_modules_mac_sigSentPacket
scalar World.node[42].nic.mac1609_4 collisions:count 0
attr source org_car2x_veins_modules_mac_sigCollision
scalar World.node[42].nic.mac1609_4 channelBusy:timeavg 0.13638441176469
attr source org_car2x_veins_modules_mac_sigChannelBusy
scalar World.node[1].appl.middleware.DenService transmission:count 310
attr source DenmSent
scalar World.node[1].appl.middleware.DenService reception:count 18432
attr source DenmReceived
scalar World.node[1].nic.phy80211p busyTime 0.083886935201423
scalar World.node[1].nic.mac1609_4 ReceivedUnicastPackets 0
scalar World.node[1].nic.mac1609_4 ReceivedBroadcasts 22316
scalar World.node[1].nic.mac1609_4 SentPackets 811
scalar World.node[1].nic.mac1609_4 SentAcknowledgements 0
scalar World.node[1].nic.mac1609_4 RetriesExceeded 0
scalar World.node[1].nic.mac1609_4 SNIRLostPackets 400
scalar World.node[1].nic.mac1609_4 RXTXLostPackets 0
scalar World.node[1].nic.mac1609_4 TotalLostPackets 400
scalar World.node[1].nic.mac1609_4 DroppedPacketsInMac 0
scalar World.node[1].nic.mac1609_4 TooLittleTime 0
scalar World.node[1].nic.mac1609_4 TimesIntoBackoff 811
scalar World.node[1].nic.mac1609_4 SlotsBackoff 2975
scalar World.node[1].nic.mac1609_4 NumInternalContention 0
scalar World.node[1].nic.mac1609_4 totalBusyTime 4.906067241888
scalar World.node[1].nic.mac1609_4 retriesExceeded:count 0
attr source org_car2x_veins_modules_mac_sigRetriesExceeded
scalar World.node[1].nic.mac1609_4 sentAcks:count 0
attr source org_car2x_veins_modules_mac_sigSentAck
scalar World.node[1].nic.mac1609_4 sentPackets:count 811
attr source org_car2x_veins_modules_mac_sigSentPacket
scalar World.node[1].nic.mac1609_4 collisions:count 0
attr source org_car2x_veins_modules_mac_sigCollision
scalar World.node[1].nic.mac1609_4 channelBusy:timeavg 0.085920617195962
attr source org_car2x_veins_modules_mac_sigChannelBusy
scalar World.node[3].appl.middleware.DenService transmission:count 453
attr source DenmSent
scalar World.node[3].appl.middleware.DenService reception:count 18995
attr source DenmReceived
scalar World.node[3].nic.phy80211p busyTime 0.085969963898939
scalar World.node[3].nic.mac1609_4 ReceivedUnicastPackets 0
scalar World.node[3].nic.mac1609_4 ReceivedBroadcasts 22309
scalar World.node[3].nic.mac1609_4 SentPackets 812
scalar World.node[3].nic.mac1609_4 SentAcknowledgements 0
scalar World.node[3].nic.mac1609_4 RetriesExceeded 0
scalar World.node[3].nic.mac1609_4 SNIRLostPackets 299
scalar World.node[3].nic.mac1609_4 RXTXLostPackets 25
scalar World.node[3].nic.mac1609_4 TotalLostPackets 324
scalar World.node[3].nic.mac1609_4 DroppedPacketsInMac 0
scalar World.node[3].nic.mac1609_4 TooLittleTime 0
scalar World.node[3].nic.mac1609_4 TimesIntoBackoff 1577
scalar World.node[3].nic.mac1609_4 SlotsBackoff 5781
scalar World.node[3].nic.mac1609_4 NumInternalContention 0
scalar World.node[3].nic.mac1609_4 totalBusyTime 4.883180539619
scalar World.node[3].nic.mac1609_4 retriesExceeded:count 0
attr source org_car2x_veins_modules_mac_sigRetriesExceeded
scalar World.node[3].nic.mac1609_4 sentAcks:count 0
attr source org_car2x_veins_modules_mac_sigSentAck
scalar World.node[3].nic.mac1609_4 sentPackets:count 812
attr source org_car2x_veins_modules_mac_sigSentPacket
scalar World.node[3].nic.mac1609_4 collisions:count 0
attr source org_car2x_veins_modules_mac_sigCollision
scalar World.node[3].nic.mac1609_4 channelBusy:timeavg 0.08814405306174
attr source org_car2x_veins_modules_mac_sigChannelBusy
scalar World.node[0].appl.middleware.DenService transmission:count 0
attr source DenmSent
scalar World.node[0].appl.middleware.DenService reception:count 21842
attr source DenmReceived
scalar World.node[0].nic.phy80211p busyTime 0.08610045307447
scalar World.node[0].nic.mac1609_4 ReceivedUnicastPackets 0
scalar World.node[0].nic.mac1609_4 ReceivedBroadcasts 24867
scalar World.node[0].nic.mac1609_4 SentPackets 885
scalar World.node[0].nic.mac1609_4 SentAcknowledgements 0
scalar World.node[0].nic.mac1609_4 RetriesExceeded 0
scalar World.node[0].nic.mac1609_4 SNIRLostPackets 485
scalar World.node[0].nic.mac1609_4 RXTXLostPackets 126
scalar World.node[0].nic.mac1609_4 TotalLostPackets 611
scalar World.node[0].nic.mac1609_4 DroppedPacketsInMac 0
scalar World.node[0].nic.mac1609_4 TooLittleTime 0
scalar World.node[0].nic.mac1609_4 TimesIntoBackoff 1277
scalar World.node[0].nic.mac1609_4 SlotsBackoff 9682
scalar World.node[0].nic.mac1609_4 NumInternalContention 0
scalar World.node[0].nic.mac1609_4 totalBusyTime 5.465830693145
scalar World.node[0].nic.mac1609_4 retriesExceeded:count 0
attr source org_car2x_veins_modules_mac_sigRetriesExceeded
scalar World.node[0].nic.mac1609_4 sentAcks:count 0
attr source org_car2x_veins_modules_mac_sigSentAck
scalar World.node[0].nic.mac1609_4 sentPackets:count 885
attr source org_car2x_veins_modules_mac_sigSentPacket
scalar World.node[0].nic.mac1609_4 collisions:count 0
attr source org_car2x_veins_modules_mac_sigCollision
scalar World.node[0].nic.mac1609_4 channelBusy:timeavg 0.088443862348663
attr source org_car2x_veins_modules_mac_sigChannelBusy
scalar World.node[17].appl.middleware.DenService transmission:count 383
attr source DenmSent
scalar World.node[17].appl.middleware.DenService reception:count 22401
attr source DenmReceived
scalar World.node[17].nic.phy80211p busyTime 0.11597553719014
scalar World.node[17].nic.mac1609_4 ReceivedUnicastPackets 0
scalar World.node[17].nic.mac1609_4 ReceivedBroadcasts 25906
scalar World.node[17].nic.mac1609_4 SentPackets 806
scalar World.node[17].nic.mac1609_4 SentAcknowledgements 0
scalar World.node[17].nic.mac1609_4 RetriesExceeded 0
scalar World.node[17].nic.mac1609_4 SNIRLostPackets 911
scalar World.node[17].nic.mac1609_4 RXTXLostPackets 30
scalar World.node[17].nic.mac1609_4 TotalLostPackets 941
scalar World.node[17].nic.mac1609_4 DroppedPacketsInMac 0
scalar World.node[17].nic.mac1609_4 TooLittleTime 0
scalar World.node[17].nic.mac1609_4 TimesIntoBackoff 1153
scalar World.node[17].nic.mac1609_4 SlotsBackoff 4886
scalar World.node[17].nic.mac1609_4 NumInternalContention 0
scalar World.node[17].nic.mac1609_4 totalBusyTime 5.679558486381
scalar World.node[17].nic.mac1609_4 retriesExceeded:count 0
attr source org_car2x_veins_modules_mac_sigRetriesExceeded
scalar World.node[17].nic.mac1609_4 sentAcks:count 0
attr source org_car2x_veins_modules_mac_sigSentAck
scalar World.node[17].nic.mac1609_4 sentPackets:count 806
attr source org_car2x_veins_modules_mac_sigSentPacket
scalar World.node[17].nic.mac1609_4 collisions:count 0
attr source org_car2x_veins_modules_mac_sigCollision
scalar World.node[17].nic.mac1609_4 channelBusy:timeavg 0.11734624971867
attr source org_car2x_veins_modules_mac_sigChannelBusy
scalar World.node[24].appl.middleware.DenService transmission:count 0
attr source DenmSent
scalar World.node[24].appl.middleware.DenService reception:count 24339
attr source DenmReceived
scalar World.node[24].nic.phy80211p busyTime 0.12797789473691
scalar World.node[24].nic.mac1609_4 ReceivedUnicastPackets 0
scalar World.node[24].nic.mac1609_4 ReceivedBroadcasts 27028
scalar World.node[24].nic.mac1609_4 SentPackets 759
scalar World.node[24].nic.mac1609_4 SentAcknowledgements 0
scalar World.node[24].nic.mac1609_4 RetriesExceeded 0
scalar World.node[24].nic.mac1609_4 SNIRLostPackets 1000
scalar World.node[24].nic.mac1609_4 RXTXLostPackets 126
scalar World.node[24].nic.mac1609_4 TotalLostPackets 1126
scalar World.node[24].nic.mac1609_4 DroppedPacketsInMac 0
scalar World.node[24].nic.mac1609_4 TooLittleTime 0
scalar World.node[24].nic.mac1609_4 TimesIntoBackoff 1376
scalar World.node[24].nic.mac1609_4 SlotsBackoff 10530
scalar World.node[24].nic.mac1609_4 NumInternalContention 0
scalar World.node[24].nic.mac1609_4 totalBusyTime 5.896288354836
scalar World.node[24].nic.mac1609_4 retriesExceeded:count 0
attr source org_car2x_veins_modules_mac_sigRetriesExceeded
scalar World.node[24].nic.mac1609_4 sentAcks:count 0
attr source org_car2x_veins_modules_mac_sigSentAck
scalar World.node[24].nic.mac1609_4 sentPackets:count 759
attr source org_car2x_veins_modules_mac_sigSentPacket
scalar World.node[24].nic.mac1609_4 collisions:count 0
attr source org_car2x_veins_modules_mac_sigCollision
scalar World.node[24].nic.mac1609_4 channelBusy:timeavg 0.12930456918507
attr source org_car2x_veins_modules_mac_sigChannelBusy
scalar World.node[29].appl.middleware.DenService transmission:count 0
attr source DenmSent
scalar World.node[29].appl.middleware.DenService reception:count 22405
attr source DenmReceived
scalar World.node[29].nic.phy80211p busyTime 0.13421587939704
scalar World.node[29].nic.mac1609_4 ReceivedUnicastPackets 0
scalar World.node[29].nic.mac1609_4 ReceivedBroadcasts 24745
scalar World.node[29].nic.mac1609_4 SentPackets 662
scalar World.node[29].nic.mac1609_4 SentAcknowledgements 0
scalar World.node[29].nic.mac1609_4 RetriesExceeded 0
scalar World.node[29].nic.mac1609_4 SNIRLostPackets 913
scalar World.node[29].nic.mac1609_4 RXTXLostPackets 2
scalar World.node[29].nic.mac1609_4 TotalLostPackets 915
scalar World.node[29].nic.mac1609_4 DroppedPacketsInMac 0
scalar World.node[29].nic.mac1609_4 TooLittleTime 0
scalar World.node[29].nic.mac1609_4 TimesIntoBackoff 1324
scalar World.node[29].nic.mac1609_4 SlotsBackoff 9909
scalar World.node[29].nic.mac1609_4 NumInternalContention 0
scalar World.node[29].nic.mac1609_4 totalBusyTime 5.384270139788
scalar World.node[29].nic.mac1609_4 retriesExceeded:count 0
attr source org_car2x_veins_modules_mac_sigRetriesExceeded
scalar World.node[29].nic.mac1609_4 sentAcks:count 0
attr source org_car2x_veins_modules_mac_sigSentAck
scalar World.node[29].nic.mac1609_4 sentPackets:count 662
attr source org_car2x_veins_modules_mac_sigSentPacket
scalar World.node[29].nic.mac1609_4 collisions:count 0
attr source org_car2x_veins_modules_mac_sigCollision
scalar World.node[29].nic.mac1609_4 channelBusy:timeavg 0.13528316934146
attr source org_car2x_veins_modules_mac_sigChannelBusy
scalar World.node[61].appl.middleware.DenService transmission:count 4
attr source DenmSent
scalar World.node[61].appl.middleware.DenService reception:count 7008
attr source DenmReceived
scalar World.node[61].nic.phy80211p busyTime 0.16160533333332
scalar World.node[61].nic.mac1609_4 ReceivedUnicastPackets 0
scalar World.node[61].nic.mac1609_4 ReceivedBroadcasts 7657
scalar World.node[61].nic.mac1609_4 SentPackets 174
scalar World.node[61].nic.mac1609_4 SentAcknowledgements 0
scalar World.node[61].nic.mac1609_4 RetriesExceeded 0
scalar World.node[61].nic.mac1609_4 SNIRLostPackets 546
scalar World.node[61].nic.mac1609_4 RXTXLostPackets 4
scalar World.node[61].nic.mac1609_4 TotalLostPackets 550
scalar World.node[61].nic.mac1609_4 DroppedPacketsInMac 0
scalar World.node[61].nic.mac1609_4 TooLittleTime 0
scalar World.node[61].nic.mac1609_4 TimesIntoBackoff 348
scalar World.node[61].nic.mac1609_4 SlotsBackoff 2614
scalar World.node[61].nic.mac1609_4 NumInternalContention 0
scalar World.node[61].nic.mac1609_4 totalBusyTime 1.673685160823
scalar World.node[61].nic.mac1609_4 retriesExceeded:count 0
attr source org_car2x_veins_modules_mac_sigRetriesExceeded
scalar World.node[61].nic.mac1609_4 sentAcks:count 0
attr source org_car2x_veins_modules_mac_sigSentAck
scalar World.node[61].nic.mac1609_4 sentPackets:count 174
attr source org_car2x_veins_modules_mac_sigSentPacket
scalar World.node[61].nic.mac1609_4 collisions:count 0
attr source org_car2x_veins_modules_mac_sigCollision
scalar World.node[61].nic.mac1609_4 channelBusy:timeavg 0.15939858674503
attr source org_car2x_veins_modules_mac_sigChannelBusy
scalar World.node[9].appl.middleware.DenService transmission:count 547
attr source DenmSent
scalar World.node[9].appl.middleware.DenService reception:count 29766
attr source DenmReceived
scalar World.node[9].nic.phy80211p busyTime 0.11332925925935
scalar World.node[9].nic.mac1609_4 ReceivedUnicastPackets 0
scalar World.node[9].nic.mac1609_4 ReceivedBroadcasts 33835
scalar World.node[9].nic.mac1609_4 SentPackets 1057
scalar World.node[9].nic.mac1609_4 SentAcknowledgements 0
scalar World.node[9].nic.mac1609_4 RetriesExceeded 0
scalar World.node[9].nic.mac1609_4 SNIRLostPackets 1273
scalar World.node[9].nic.mac1609_4 RXTXLostPackets 0
scalar World.node[9].nic.mac1609_4 TotalLostPackets 1273
scalar World.node[9].nic.mac1609_4 DroppedPacketsInMac 0
scalar World.node[9].nic.mac1609_4 TooLittleTime 0
scalar World.node[9].nic.mac1609_4 TimesIntoBackoff 1057
scalar World.node[9].nic.mac1609_4 SlotsBackoff 4421
scalar World.node[9].nic.mac1609_4 NumInternalContention 0
scalar World.node[9].nic.mac1609_4 totalBusyTime 7.428048317891
scalar World.node[9].nic.mac1609_4 retriesExceeded:count 0
attr source org_car2x_veins_modules_mac_sigRetriesExceeded
scalar World.node[9].nic.mac1609_4 sentAcks:count 0
attr source org_car2x_veins_modules_mac_sigSentAck
scalar World.node[9].nic.mac1609_4 sentPackets:count 1057
attr source org_car2x_veins_modules_mac_sigSentPacket
scalar World.node[9].nic.mac1609_4 collisions:count 0
attr source org_car2x_veins_modules_mac_sigCollision
scalar World.node[9].nic.mac1609_4 channelBusy:timeavg 0.11463037527619
attr source org_car2x_veins_modules_mac_sigChannelBusy
scalar World.node[26].appl.middleware.DenService transmission:count 170
attr source DenmSent
scalar World.node[26].appl.middleware.DenService reception:count 22896
attr source DenmReceived
scalar World.node[26].nic.phy80211p busyTime 0.11323808731814
scalar World.node[26].nic.mac1609_4 ReceivedUnicastPackets 0
scalar World.node[26].nic.mac1609_4 ReceivedBroadcasts 25657
scalar World.node[26].nic.mac1609_4 SentPackets 800
scalar World.node[26].nic.mac1609_4 SentAcknowledgements 0
scalar World.node[26].nic.mac1609_4 RetriesExceeded 0
scalar World.node[26].nic.mac1609_4 SNIRLostPackets 501
scalar World.node[26].nic.mac1609_4 RXTXLostPackets 31
scalar World.node[26].nic.mac1609_4 TotalLostPackets 532
scalar World.node[26].nic.mac1609_4 DroppedPacketsInMac 0
scalar World.node[26].nic.mac1609_4 TooLittleTime 0
scalar World.node[26].nic.mac1609_4 TimesIntoBackoff 1581
scalar World.node[26].nic.mac1609_4 SlotsBackoff 6681
scalar World.node[26].nic.mac1609_4 NumInternalContention 0
scalar World.node[26].nic.mac1609_4 totalBusyTime 5.553628075078
scalar World.node[26].nic.mac1609_4 retriesExceeded:count 0
attr source org_car2x_veins_modules_mac_sigRetriesExceeded
scalar World.node[26].nic.mac1609_4 sentAcks:count 0
attr source org_car2x_veins_modules_mac_sigSentAck
scalar World.node[26].nic.mac1609_4 sentPackets:count 800
attr source org_car2x_veins_modules_mac_sigSentPacket
scalar World.node[26].nic.mac1609_4 collisions:count 0
attr source org_car2x_veins_modules_mac_sigCollision
scalar World.node[26].nic.mac1609_4 channelBusy:timeavg 0.11546004314097
attr source org_car2x_veins_modules_mac_sigChannelBusy
scalar World.node[10].appl.middleware.DenService transmission:count 550
attr source DenmSent
scalar World.node[10].appl.middleware.DenService reception:count 30571
attr source DenmReceived
scalar World.node[10].nic.phy80211p busyTime 0.11608049155156
scalar World.node[10].nic.mac1609_4 ReceivedUnicastPackets 0
scalar World.node[10].nic.mac1609_4 ReceivedBroadcasts 34859
scalar World.node[10].nic.mac1609_4 SentPackets 1063
scalar World.node[10].nic.mac1609_4 SentAcknowledgements 0
scalar World.node[10].nic.mac1609_4 RetriesExceeded 0
scalar World.node[10].nic.mac1609_4 SNIRLostPackets 1298
scalar World.node[10].nic.mac1609_4 RXTXLostPackets 3
scalar World.node[10].nic.mac1609_4 TotalLostPackets 1301
scalar World.node[10].nic.mac1609_4 DroppedPacketsInMac 0
scalar World.node[10].nic.mac1609_4 TooLittleTime 0
scalar World.node[10].nic.mac1609_4 TimesIntoBackoff 1103
scalar World.node[10].nic.mac1609_4 SlotsBackoff 4525
scalar World.node[10].nic.mac1609_4 NumInternalContention 0
scalar World.node[10].nic.mac1609_4 totalBusyTime 7.635721498778
scalar World.node[10].nic.mac1609_4 retriesExceeded:count 0
attr source org_car2x_veins_modules_mac_sigRetriesExceeded
scalar World.node[10].nic.mac1609_4 sentAcks:count 0
attr source org_car2x_veins_modules_mac_sigSentAck
scalar World.node[10].nic.mac1609_4 sentPackets:count 1063
attr source org_car2x_veins_modules_mac_sigSentPacket
scalar World.node[10].nic.mac1609_4 collisions:count 0
attr source org_car2x_veins_modules_mac_sigCollision
scalar World.node[10].nic.mac1609_4 channelBusy:timeavg 0.11729218892142
attr source org_car2x_veins_modules_mac_sigChannelBusy
scalar World.node[32].appl.middleware.DenService transmission:count 328
attr source DenmSent
scalar World.node[32].appl.middleware.DenService reception:count 25295
attr source DenmReceived
scalar World.node[32].nic.phy80211p busyTime 0.14292885780895
scalar World.node[32].nic.mac1609_4 ReceivedUnicastPackets 0
scalar World.node[32].nic.mac1609_4 ReceivedBroadcasts 28178
scalar World.node[32].nic.mac1609_4 SentPackets 714
scalar World.node[32].nic.mac1609_4 SentAcknowledgements 0
scalar World.node[32].nic.mac1609_4 RetriesExceeded 0
scalar World.node[32].nic.mac1609_4 SNIRLostPackets 1307
scalar World.node[32].nic.mac1609_4 RXTXLostPackets 0
scalar World.node[32].nic.mac1609_4 TotalLostPackets 1307
scalar World.node[32].nic.mac1609_4 DroppedPacketsInMac 0
scalar World.node[32].nic.mac1609_4 TooLittleTime 0
scalar World.node[32].nic.mac1609_4 TimesIntoBackoff 714
scalar World.node[32].nic.mac1609_4 SlotsBackoff 3170
scalar World.node[32].nic.mac1609_4 NumInternalContention 0
scalar World.node[32].nic.mac1609_4 totalBusyTime 6.146428434337
scalar World.node[32].nic.mac1609_4 retriesExceeded:count 0
attr source org_car2x_veins_modules_mac_sigRetriesExceeded
scalar World.node[32].nic.mac1609_4 sentAcks:count 0
attr source org_car2x_veins_modules_mac_sigSentAck
scalar World.node[32].nic.mac1609_4 sentPackets:count 714
attr source org_car2x_veins_modules_mac_sigSentPacket
scalar World.node[32].nic.mac1609_4 collisions:count 0
attr source org_car2x_veins_modules_mac_sigCollision
scalar World.node[32].nic.mac1609_4 channelBusy:timeavg 0.14327339007787
attr source org_car2x_veins_modules_mac_sigChannelBusy
scalar World.node[8].appl.middleware.DenService transmission:count 100
attr source DenmSent
scalar World.node[8].appl.middleware.DenService reception:count 31516
attr source DenmReceived
scalar World.node[8].nic.phy80211p busyTime 0.11417760932955
scalar World.node[8].nic.mac1609_4 ReceivedUnicastPackets 0
scalar World.node[8].nic.mac1609_4 ReceivedBroadcasts 35873
scalar World.node[8].nic.mac1609_4 SentPackets 1108
scalar World.node[8].nic.mac1609_4 SentAcknowledgements 0
scalar World.node[8].nic.mac1609_4 RetriesExceeded 0
scalar World.node[8].nic.mac1609_4 SNIRLostPackets 1606
scalar World.node[8].nic.mac1609_4 RXTXLostPackets 3
scalar World.node[8].nic.mac1609_4 TotalLostPackets 1609
scalar World.node[8].nic.mac1609_4 DroppedPacketsInMac 0
scalar World.node[8].nic.mac1609_4 TooLittleTime 0
scalar World.node[8].nic.mac1609_4 TimesIntoBackoff 1122
scalar World.node[8].nic.mac1609_4 SlotsBackoff 4400
scalar World.node[8].nic.mac1609_4 NumInternalContention 0
scalar World.node[8].nic.mac1609_4 totalBusyTime 7.880073947814
scalar World.node[8].nic.mac1609_4 retriesExceeded:count 0
attr source org_car2x_veins_modules_mac_sigRetriesExceeded
scalar World.node[8].nic.mac1609_4 sentAcks:count 0
attr source org_car2x_veins_modules_mac_sigSentAck
scalar World.node[8].nic.mac1609_4 sentPackets:count 1108
attr source org_car2x_veins_modules_mac_sigSentPacket
scalar World.node[8].nic.mac1609_4 collisions:count 0
attr source org_car2x_veins_modules_mac_sigCollision
scalar World.node[8].nic.mac1609_4 channelBusy:timeavg 0.11486988262129
attr source org_car2x_veins_modules_mac_sigChannelBusy
scalar World.node[2].appl.middleware.DenService transmission:count 649
attr source DenmSent
scalar World.node[2].appl.middleware.DenService reception:count 31809
attr source DenmReceived
scalar World.node[2].nic.phy80211p busyTime 0.10609461333343
scalar World.node[2].nic.mac1609_4 ReceivedUnicastPackets 0
scalar World.node[2].nic.mac1609_4 ReceivedBroadcasts 36475
scalar World.node[2].nic.mac1609_4 SentPackets 1131
scalar World.node[2].nic.mac1609_4 SentAcknowledgements 0
scalar World.node[2].nic.mac1609_4 RetriesExceeded 0
scalar World.node[2].nic.mac1609_4 SNIRLostPackets 1548
scalar World.node[2].nic.mac1609_4 RXTXLostPackets 31
scalar World.node[2].nic.mac1609_4 TotalLostPackets 1579
scalar World.node[2].nic.mac1609_4 DroppedPacketsInMac 0
scalar World.node[2].nic.mac1609_4 TooLittleTime 0
scalar World.node[2].nic.mac1609_4 TimesIntoBackoff 1220
scalar World.node[2].nic.mac1609_4 SlotsBackoff 4547
scalar World.node[2].nic.mac1609_4 NumInternalContention 0
scalar World.node[2].nic.mac1609_4 totalBusyTime 8.013492398698
scalar World.node[2].nic.mac1609_4 retriesExceeded:count 0
attr source org_car2x_veins_modules_mac_sigRetriesExceeded
scalar World.node[2].nic.mac1609_4 sentAcks:count 0
attr source org_car2x_veins_modules_mac_sigSentAck
scalar World.node[2].nic.mac1609_4 sentPackets:count 1131
attr source org_car2x_veins_modules_mac_sigSentPacket
scalar World.node[2].nic.mac1609_4 collisions:count 0
attr source org_car2x_veins_modules_mac_sigCollision
scalar World.node[2].nic.mac1609_4 channelBusy:timeavg 0.10684656531606
attr source org_car2x_veins_modules_mac_sigChannelBusy
scalar World.node[11].appl.middleware.DenService transmission:count 0
attr source DenmSent
scalar World.node[11].appl.middleware.DenService reception:count 32675
attr source DenmReceived
scalar World.node[11].nic.phy80211p busyTime 0.11878150150161
scalar World.node[11].nic.mac1609_4 ReceivedUnicastPackets 0
scalar World.node[11].nic.mac1609_4 ReceivedBroadcasts 36468
scalar World.node[11].nic.mac1609_4 SentPackets 1105
scalar World.node[11].nic.mac1609_4 SentAcknowledgements 0
scalar World.node[11].nic.mac1609_4 RetriesExceeded 0
scalar World.node[11].nic.mac1609_4 SNIRLostPackets 1525
scalar World.node[11].nic.mac1609_4 RXTXLostPackets 0
scalar World.node[11].nic.mac1609_4 TotalLostPackets 1525
scalar World.node[11].nic.mac1609_4 DroppedPacketsInMac 0
scalar World.node[11].nic.mac1609_4 TooLittleTime 0
scalar World.node[11].nic.mac1609_4 TimesIntoBackoff 1105
scalar World.node[11].nic.mac1609_4 SlotsBackoff 8082
scalar World.node[11].nic.mac1609_4 NumInternalContention 0
scalar World.node[11].nic.mac1609_4 totalBusyTime 7.97426292517
scalar World.node[11].nic.mac1609_4 retriesExceeded:count 0
attr source org_car2x_veins_modules_mac_sigRetriesExceeded
scalar World.node[11].nic.mac1609_4 sentAcks:count 0
attr source org_car2x_veins_modules_mac_sigSentAck
scalar World.node[11].nic.mac1609_4 sentPackets:count 1105
attr source org_car2x_veins_modules_mac_sigSentPacket
scalar World.node[11].nic.mac1609_4 collisions:count 0
attr source org_car2x_veins_modules_mac_sigCollision
scalar World.node[11].nic.mac1609_4 channelBusy:timeavg 0.11973367755521
attr source org_car2x_veins_modules_mac_sigChannelBusy
scalar World.node[19].appl.middleware.DenService transmission:count 280
attr source DenmSent
scalar World.node[19].appl.middleware.DenService reception:count 31669
attr source DenmReceived
scalar World.node[19].nic.phy80211p busyTime 0.13076964102575
scalar World.node[19].nic.mac1609_4 ReceivedUnicastPackets 0
scalar World.node[19].nic.mac1609_4 ReceivedBroadcasts 35509
scalar World.node[19].nic.mac1609_4 SentPackets 974
scalar World.node[19].nic.mac1609_4 SentAcknowledgements 0
scalar World.node[19].nic.mac1609_4 RetriesExceeded 0
scalar World.node[19].nic.mac1609_4 SNIRLostPackets 1196
scalar World.node[19].nic.mac1609_4 RXTXLostPackets 0
scalar World.node[19].nic.mac1609_4 TotalLostPackets 1196
scalar World.node[19].nic.mac1609_4 DroppedPacketsInMac 0
scalar World.node[19].nic.mac1609_4 TooLittleTime 0
scalar World.node[19].nic.mac1609_4 TimesIntoBackoff 974
scalar World.node[19].nic.mac1609_4 SlotsBackoff 4162
scalar World.node[19].nic.mac1609_4 NumInternalContention 0
scalar World.node[19].nic.mac1609_4 totalBusyTime 7.718964401028
scalar World.node[19].nic.mac1609_4 retriesExceeded:count 0
attr source org_car2x_veins_modules_mac_sigRetriesExceeded
scalar World.node[19].nic.mac1609_4 sentAcks:count 0
attr source org_car2x_veins_modules_mac_sigSentAck
scalar World.node[19].nic.mac1609_4 sentPackets:count 974
attr source org_car2x_veins_modules_mac_sigSentPacket
scalar World.node[19].nic.mac1609_4 collisions:count 0
attr source org_car2x_veins_modules_mac_sigCollision
scalar World.node[19].nic.mac1609_4 channelBusy:timeavg 0.13194810941939
attr source org_car2x_veins_modules_mac_sigChannelBusy
scalar World.node[62].appl.middleware.DenService transmission:count 69
attr source DenmSent
scalar World.node[62].appl.middleware.DenService reception:count 12196
attr source DenmReceived
scalar World.node[62].nic.phy80211p busyTime 0.16893788235293
scalar World.node[62].nic.mac1609_4 ReceivedUnicastPackets 0
scalar World.node[62].nic.mac1609_4 ReceivedBroadcasts 13244
scalar World.node[62].nic.mac1609_4 SentPackets 282
scalar World.node[62].nic.mac1609_4 SentAcknowledgements 0
scalar World.node[62].nic.mac1609_4 RetriesExceeded 0
scalar World.node[62].nic.mac1609_4 SNIRLostPackets 658
scalar World.node[62].nic.mac1609_4 RXTXLostPackets 0
scalar World.node[62].nic.mac1609_4 TotalLostPackets 658
scalar World.node[62].nic.mac1609_4 DroppedPacketsInMac 0
scalar World.node[62].nic.mac1609_4 TooLittleTime 0
scalar World.node[62].nic.mac1609_4 TimesIntoBackoff 282
scalar World.node[62].nic.mac1609_4 SlotsBackoff 1625
scalar World.node[62].nic.mac1609_4 NumInternalContention 0
scalar World.node[62].nic.mac1609_4 totalBusyTime 2.869105402744
scalar World.node[62].nic.mac1609_4 retriesExceeded:count 0
attr source org_car2x_veins_modules_mac_sigRetriesExceeded
scalar World.node[62].nic.mac1609_4 sentAcks:count 0
attr source org_car2x_veins_modules_mac_sigSentAck
scalar World.node[62].nic.mac1609_4 sentPackets:count 282
attr source org_car2x_veins_modules_mac_sigSentPacket
scalar World.node[62].nic.mac1609_4 collisions:count 0
attr source org_car2x_veins_modules_mac_sigCollision
scalar World.node[62].nic.mac1609_4 channelBusy:timeavg 0.16877090604375
attr source org_car2x_veins_modules_mac_sigChannelBusy
scalar World.node[35].appl.middleware.DenService transmission:count 341
attr source DenmSent
scalar World.node[35].appl.middleware.DenService reception:count 27148
attr source DenmReceived
scalar World.node[35].nic.phy80211p busyTime 0.14949592760191
scalar World.node[35].nic.mac1609_4 ReceivedUnicastPackets 0
scalar World.node[35].nic.mac1609_4 ReceivedBroadcasts 30191
scalar World.node[35].nic.mac1609_4 SentPackets 736
scalar World.node[35].nic.mac1609_4 SentAcknowledgements 0
scalar World.node[35].nic.mac1609_4 RetriesExceeded 0
scalar World.node[35].nic.mac1609_4 SNIRLostPackets 1602
scalar World.node[35].nic.mac1609_4 RXTXLostPackets 0
scalar World.node[35].nic.mac1609_4 TotalLostPackets 1602
scalar World.node[35].nic.mac1609_4 DroppedPacketsInMac 0
scalar World.node[35].nic.mac1609_4 TooLittleTime 0
scalar World.node[35].nic.mac1609_4 TimesIntoBackoff 745
scalar World.node[35].nic.mac1609_4 SlotsBackoff 3335
scalar World.node[35].nic.mac1609_4 NumInternalContention 0
scalar World.node[35].nic.mac1609_4 totalBusyTime 6.574321431873
scalar World.node[35].nic.mac1609_4 retriesExceeded:count 0
attr source org_car2x_veins_modules_mac_sigRetriesExceeded
scalar World.node[35].nic.mac1609_4 sentAcks:count 0
attr source org_car2x_veins_modules_mac_sigSentAck
scalar World.node[35].nic.mac1609_4 sentPackets:count 736
attr source org_car2x_veins_modules_mac_sigSentPacket
scalar World.node[35].nic.mac1609_4 collisions:count 0
attr source org_car2x_veins_modules_mac_sigCollision
scalar World.node[35].nic.mac1609_4 channelBusy:timeavg 0.14874030388863
attr source org_car2x_veins_modules_mac_sigChannelBusy
scalar World.node[34].appl.middleware.DenService transmission:count 355
attr source DenmSent
scalar World.node[34].appl.middleware.DenService reception:count 28229
attr source DenmReceived
scalar World.node[34].nic.phy80211p busyTime 0.14955473684222
scalar World.node[34].nic.mac1609_4 ReceivedUnicastPackets 0
scalar World.node[34].nic.mac1609_4 ReceivedBroadcasts 31330
scalar World.node[34].nic.mac1609_4 SentPackets 759
scalar World.node[34].nic.mac1609_4 SentAcknowledgements 0
scalar World.node[34].nic.mac1609_4 RetriesExceeded 0
scalar World.node[34].nic.mac1609_4 SNIRLostPackets 1493
scalar World.node[34].nic.mac1609_4 RXTXLostPackets 0
scalar World.node[34].nic.mac1609_4 TotalLostPackets 1493
scalar World.node[34].nic.mac1609_4 DroppedPacketsInMac 0
scalar World.node[34].nic.mac1609_4 TooLittleTime 0
scalar World.node[34].nic.mac1609_4 TimesIntoBackoff 1390
scalar World.node[34].nic.mac1609_4 SlotsBackoff 6249
scalar World.node[34].nic.mac1609_4 NumInternalContention 0
scalar World.node[34].nic.mac1609_4 totalBusyTime 6.815130158092
scalar World.node[34].nic.mac1609_4 retriesExceeded:count 0
attr source org_car2x_veins_modules_mac_sigRetriesExceeded
scalar World.node[34].nic.mac1609_4 sentAcks:count 0
attr source org_car2x_veins_modules_mac_sigSentAck
scalar World.node[34].nic.mac1609_4 sentPackets:count 759
attr source org_car2x_veins_modules_mac_sigSentPacket
scalar World.node[34].nic.mac1609_4 collisions:count 0
attr source org_car2x_veins_modules_mac_sigCollision
scalar World.node[34].nic.mac1609_4 channelBusy:timeavg 0.14945460873019
attr source org_car2x_veins_modules_mac_sigChannelBusy
scalar World.node[30].appl.middleware.DenService transmission:count 150
attr source DenmSent
scalar World.node[30].appl.middleware.DenService reception:count 30132
attr source DenmReceived
scalar World.node[30].nic.phy80211p busyTime 0.14316102161112
scalar World.node[30].nic.mac1609_4 ReceivedUnicastPackets 0
scalar World.node[30].nic.mac1609_4 ReceivedBroadcasts 33606
scalar World.node[30].nic.mac1609_4 SentPackets 848
scalar World.node[30].nic.mac1609_4 SentAcknowledgements 0
scalar World.node[30].nic.mac1609_4 RetriesExceeded 0
scalar World.node[30].nic.mac1609_4 SNIRLostPackets 1442
scalar World.node[30].nic.mac1609_4 RXTXLostPackets 1
scalar World.node[30].nic.mac1609_4 TotalLostPackets 1443
scalar World.node[30].nic.mac1609_4 DroppedPacketsInMac 0
scalar World.node[30].nic.mac1609_4 TooLittleTime 0
scalar World.node[30].nic.mac1609_4 TimesIntoBackoff 941
scalar World.node[30].nic.mac1609_4 SlotsBackoff 3886
scalar World.node[30].nic.mac1609_4 NumInternalContention 0
scalar World.node[30].nic.mac1609_4 totalBusyTime 7.299712554001
scalar World.node[30].nic.mac1609_4 retriesExceeded:count 0
attr source org_car2x_veins_modules_mac_sigRetriesExceeded
scalar World.node[30].nic.mac1609_4 sentAcks:count 0
attr source org_car2x_veins_modules_mac_sigSentAck
scalar World.node[30].nic.mac1609_4 sentPackets:count 848
attr source org_car2x_veins_modules_mac_sigSentPacket
scalar World.node[30].nic.mac1609_4 collisions:count 0
attr source org_car2x_veins_modules_mac_sigCollision
scalar World.node[30].nic.mac1609_4 channelBusy:timeavg 0.14341282031447
attr source org_car2x_veins_modules_mac_sigChannelBusy
scalar World.node[18].appl.middleware.DenService transmission:count 373
attr source DenmSent
scalar World.node[18].appl.middleware.DenService reception:count 35096
attr source DenmReceived
scalar World.node[18].nic.phy80211p busyTime 0.13178519877685
scalar World.node[18].nic.mac1609_4 ReceivedUnicastPackets 0
scalar World.node[18].nic.mac1609_4 ReceivedBroadcasts 39884
scalar World.node[18].nic.mac1609_4 SentPackets 1089
scalar World.node[18].nic.mac1609_4 SentAcknowledgements 0
scalar World.node[18].nic.mac1609_4 RetriesExceeded 0
scalar World.node[18].nic.mac1609_4 SNIRLostPackets 1507
scalar World.node[18].nic.mac1609_4 RXTXLostPackets 0
scalar World.node[18].nic.mac1609_4 TotalLostPackets 1507
scalar World.node[18].nic.mac1609_4 DroppedPacketsInMac 0
scalar World.node[18].nic.mac1609_4 TooLittleTime 0
scalar World.node[18].nic.mac1609_4 TimesIntoBackoff 1089
scalar World.node[18].nic.mac1609_4 SlotsBackoff 4406
scalar World.node[18].nic.mac1609_4 NumInternalContention 0
scalar World.node[18].nic.mac1609_4 totalBusyTime 8.661963683998
scalar World.node[18].nic.mac1609_4 retriesExceeded:count 0
attr source org_car2x_veins_modules_mac_sigRetriesExceeded
scalar World.node[18].nic.mac1609_4 sentAcks:count 0
attr source org_car2x_veins_modules_mac_sigSentAck
scalar World.node[18].nic.mac1609_4 sentPackets:count 1089
attr source org_car2x_veins_modules_mac_sigSentPacket
scalar World.node[18].nic.mac1609_4 collisions:count 0
attr source org_car2x_veins_modules_mac_sigCollision
scalar World.node[18].nic.mac1609_4 channelBusy:timeavg 0.13244592788996
attr source org_car2x_veins_modules_mac_sigChannelBusy
scalar World.node[50].appl.middleware.DenService transmission:count 160
attr source DenmSent
scalar World.node[50].appl.middleware.DenService reception:count 22447
attr source DenmReceived
scalar World.node[50].nic.phy80211p busyTime 0.16278385756684
scalar World.node[50].nic.mac1609_4 ReceivedUnicastPackets 0
scalar World.node[50].nic.mac1609_4 ReceivedBroadcasts 24767
scalar World.node[50].nic.mac1609_4 SentPackets 561
scalar World.node[50].nic.mac1609_4 SentAcknowledgements 0
scalar World.node[50].nic.mac1609_4 RetriesExceeded 0
scalar World.node[50].nic.mac1609_4 SNIRLostPackets 1733
scalar World.node[50].nic.mac1609_4 RXTXLostPackets 0
scalar World.node[50].nic.mac1609_4 TotalLostPackets 1733
scalar World.node[50].nic.mac1609_4 DroppedPacketsInMac 0
scalar World.node[50].nic.mac1609_4 TooLittleTime 0
scalar World.node[50].nic.mac1609_4 TimesIntoBackoff 561
scalar World.node[50].nic.mac1609_4 SlotsBackoff 2713
scalar World.node[50].nic.mac1609_4 NumInternalContention 0
scalar World.node[50].nic.mac1609_4 totalBusyTime 5.421137926705
scalar World.node[50].nic.mac1609_4 retriesExceeded:count 0
attr source org_car2x_veins_modules_mac_sigRetriesExceeded
scalar World.node[50].nic.mac1609_4 sentAcks:count 0
attr source org_car2x_veins_modules_mac_sigSentAck
scalar World.node[50].nic.mac1609_4 sentPackets:count 561
attr source org_car2x_veins_modules_mac_sigSentPacket
scalar World.node[50].nic.mac1609_4 collisions:count 0
attr source org_car2x_veins_modules_mac_sigCollision
scalar World.node[50].nic.mac1609_4 channelBusy:timeavg 0.16086462690526
attr source org_car2x_veins_modules_mac_sigChannelBusy
scalar World.node[16].appl.middleware.DenService transmission:count 160
attr source DenmSent
scalar World.node[16].appl.middleware.DenService reception:count 35438
attr source DenmReceived
scalar World.node[16].nic.phy80211p busyTime 0.12838188235302
scalar World.node[16].nic.mac1609_4 ReceivedUnicastPackets 0
scalar World.node[16].nic.mac1609_4 ReceivedBroadcasts 40184
scalar World.node[16].nic.mac1609_4 SentPackets 1133
scalar World.node[16].nic.mac1609_4 SentAcknowledgements 0
scalar World.node[16].nic.mac1609_4 RetriesExceeded 0
scalar World.node[16].nic.mac1609_4 SNIRLostPackets 1712
scalar World.node[16].nic.mac1609_4 RXTXLostPackets 3
scalar World.node[16].nic.mac1609_4 TotalLostPackets 1715
scalar World.node[16].nic.mac1609_4 DroppedPacketsInMac 0
scalar World.node[16].nic.mac1609_4 TooLittleTime 0
scalar World.node[16].nic.mac1609_4 TimesIntoBackoff 1165
scalar World.node[16].nic.mac1609_4 SlotsBackoff 4840
scalar World.node[16].nic.mac1609_4 NumInternalContention 0
scalar World.node[16].nic.mac1609_4 totalBusyTime 8.761388149039
scalar World.node[16].nic.mac1609_4 retriesExceeded:count 0
attr source org_car2x_veins_modules_mac_sigRetriesExceeded
scalar World.node[16].nic.mac1609_4 sentAcks:count 0
attr source org_car2x_veins_modules_mac_sigSentAck
scalar World.node[16].nic.mac1609_4 sentPackets:count 1133
attr source org_car2x_veins_modules_mac_sigSentPacket
scalar World.node[16].nic.mac1609_4 collisions:count 0
attr source org_car2x_veins_modules_mac_sigCollision
scalar World.node[16].nic.mac1609_4 channelBusy:timeavg 0.1288439433683
attr source org_car2x_veins_modules_mac_sigChannelBusy
scalar World.node[33].appl.middleware.DenService transmission:count 30
attr source DenmSent
scalar World.node[33].appl.middleware.DenService reception:count 31443
attr source DenmReceived
scalar World.node[33].nic.phy80211p busyTime 0.14807543307099
scalar World.node[33].nic.mac1609_4 ReceivedUnicastPackets 0
scalar World.node[33].nic.mac1609_4 ReceivedBroadcasts 35025
scalar World.node[33].nic.mac1609_4 SentPackets 846
scalar World.node[33].nic.mac1609_4 SentAcknowledgements 0
scalar World.node[33].nic.mac1609_4 RetriesExceeded 0
scalar World.node[33].nic.mac1609_4 SNIRLostPackets 1185
scalar World.node[33].nic.mac1609_4 RXTXLostPackets 0
scalar World.node[33].nic.mac1609_4 TotalLostPackets 1185
scalar World.node[33].nic.mac1609_4 DroppedPacketsInMac 0
scalar World.node[33].nic.mac1609_4 TooLittleTime 0
scalar World.node[33].nic.mac1609_4 TimesIntoBackoff 846
scalar World.node[33].nic.mac1609_4 SlotsBackoff 3693
scalar World.node[33].nic.mac1609_4 NumInternalContention 0
scalar World.node[33].nic.mac1609_4 totalBusyTime 7.54330384776
scalar World.node[33].nic.mac1609_4 retriesExceeded:count 0
attr source org_car2x_veins_modules_mac_sigRetriesExceeded
scalar World.node[33].nic.mac1609_4 sentAcks:count 0
attr source org_car2x_veins_modules_mac_sigSentAck
scalar World.node[33].nic.mac1609_4 sentPackets:count 846
attr source org_car2x_veins_modules_mac_sigSentPacket
scalar World.node[33].nic.mac1609_4 collisions:count 0
attr source org_car2x_veins_modules_mac_sigCollision
scalar World.node[33].nic.mac1609_4 channelBusy:timeavg 0.14849023322374
attr source org_car2x_veins_modules_mac_sigChannelBusy
scalar World.node[23].appl.middleware.DenService transmission:count 10
attr source DenmSent
scalar World.node[23].appl.middleware.DenService reception:count 36050
attr source DenmReceived
scalar World.node[23].nic.phy80211p busyTime 0.13837560192626
scalar World.node[23].nic.mac1609_4 ReceivedUnicastPackets 0
scalar World.node[23].nic.mac1609_4 ReceivedBroadcasts 40283
scalar World.node[23].nic.mac1609_4 SentPackets 1037
scalar World.node[23].nic.mac1609_4 SentAcknowledgements 0
scalar World.node[23].nic.mac1609_4 RetriesExceeded 0
scalar World.node[23].nic.mac1609_4 SNIRLostPackets 1223
scalar World.node[23].nic.mac1609_4 RXTXLostPackets 0
scalar World.node[23].nic.mac1609_4 TotalLostPackets 1223
scalar World.node[23].nic.mac1609_4 DroppedPacketsInMac 0
scalar World.node[23].nic.mac1609_4 TooLittleTime 0
scalar World.node[23].nic.mac1609_4 TimesIntoBackoff 1037
scalar World.node[23].nic.mac1609_4 SlotsBackoff 5773
scalar World.node[23].nic.mac1609_4 NumInternalContention 0
scalar World.node[23].nic.mac1609_4 totalBusyTime 8.692293517426
scalar World.node[23].nic.mac1609_4 retriesExceeded:count 0
attr source org_car2x_veins_modules_mac_sigRetriesExceeded
scalar World.node[23].nic.mac1609_4 sentAcks:count 0
attr source org_car2x_veins_modules_mac_sigSentAck
scalar World.node[23].nic.mac1609_4 sentPackets:count 1037
attr source org_car2x_veins_modules_mac_sigSentPacket
scalar World.node[23].nic.mac1609_4 collisions:count 0
attr source org_car2x_veins_modules_mac_sigCollision
scalar World.node[23].nic.mac1609_4 channelBusy:timeavg 0.13952317042426
attr source org_car2x_veins_modules_mac_sigChannelBusy
scalar World.node[6].appl.middleware.DenService transmission:count 10
attr source DenmSent
scalar World.node[6].appl.middleware.DenService reception:count 38079
attr source DenmReceived
scalar World.node[6].nic.phy80211p busyTime 0.11675781094533
scalar World.node[6].nic.mac1609_4 ReceivedUnicastPackets 0
scalar World.node[6].nic.mac1609_4 ReceivedBroadcasts 42957
scalar World.node[6].nic.mac1609_4 SentPackets 1273
scalar World.node[6].nic.mac1609_4 SentAcknowledgements 0
scalar World.node[6].nic.mac1609_4 RetriesExceeded 0
scalar World.node[6].nic.mac1609_4 SNIRLostPackets 2154
scalar World.node[6].nic.mac1609_4 RXTXLostPackets 0
scalar World.node[6].nic.mac1609_4 TotalLostPackets 2154
scalar World.node[6].nic.mac1609_4 DroppedPacketsInMac 0
scalar World.node[6].nic.mac1609_4 TooLittleTime 0
scalar World.node[6].nic.mac1609_4 TimesIntoBackoff 1274
scalar World.node[6].nic.mac1609_4 SlotsBackoff 7024
scalar World.node[6].nic.mac1609_4 NumInternalContention 0
scalar World.node[6].nic.mac1609_4 totalBusyTime 9.431544447593
scalar World.node[6].nic.mac1609_4 retriesExceeded:count 0
attr source org_car2x_veins_modules_mac_sigRetriesExceeded
scalar World.node[6].nic.mac1609_4 sentAcks:count 0
attr source org_car2x_veins_modules_mac_sigSentAck
scalar World.node[6].nic.mac1609_4 sentPackets:count 1273
attr source org_car2x_veins_modules_mac_sigSentPacket
scalar World.node[6].nic.mac1609_4 collisions:count 0
attr source org_car2x_veins_modules_mac_sigCollision
scalar World.node[6].nic.mac1609_4 channelBusy:timeavg 0.11730776676116
attr source org_car2x_veins_modules_mac_sigChannelBusy
scalar World.node[55].appl.middleware.DenService transmission:count 251
attr source DenmSent
scalar World.node[55].appl.middleware.DenService reception:count 24378
attr source DenmReceived
scalar World.node[55].nic.phy80211p busyTime 0.16409454545463
scalar World.node[55].nic.mac1609_4 ReceivedUnicastPackets 0
scalar World.node[55].nic.mac1609_4 ReceivedBroadcasts 26777
scalar World.node[55].nic.mac1609_4 SentPackets 586
scalar World.node[55].nic.mac1609_4 SentAcknowledgements 0
scalar World.node[55].nic.mac1609_4 RetriesExceeded 0
scalar World.node[55].nic.mac1609_4 SNIRLostPackets 1144
scalar World.node[55].nic.mac1609_4 RXTXLostPackets 5
scalar World.node[55].nic.mac1609_4 TotalLostPackets 1149
scalar World.node[55].nic.mac1609_4 DroppedPacketsInMac 0
scalar World.node[55].nic.mac1609_4 TooLittleTime 0
scalar World.node[55].nic.mac1609_4 TimesIntoBackoff 1172
scalar World.node[55].nic.mac1609_4 SlotsBackoff 5551
scalar World.node[55].nic.mac1609_4 NumInternalContention 0
scalar World.node[55].nic.mac1609_4 totalBusyTime 5.784655390577
scalar World.node[55].nic.mac1609_4 retriesExceeded:count 0
attr source org_car2x_veins_modules_mac_sigRetriesExceeded
scalar World.node[55].nic.mac1609_4 sentAcks:count 0
attr source org_car2x_veins_modules_mac_sigSentAck
scalar World.node[55].nic.mac1609_4 sentPackets:count 586
attr source org_car2x_veins_modules_mac_sigSentPacket
scalar World.node[55].nic.mac1609_4 collisions:count 0
attr source org_car2x_veins_modules_mac_sigCollision
scalar World.node[55].nic.mac1609_4 channelBusy:timeavg 0.16433680086875
attr source org_car2x_veins_modules_mac_sigChannelBusy
scalar World.node[80].appl.middleware.DenService transmission:count 12
attr source DenmSent
scalar World.node[80].appl.middleware.DenService reception:count 7828
attr source DenmReceived
scalar World.node[80].nic.phy80211p busyTime 0.16730477876105
scalar World.node[80].nic.mac1609_4 ReceivedUnicastPackets 0
scalar World.node[80].nic.mac1609_4 ReceivedBroadcasts 8605
scalar World.node[80].nic.mac1609_4 SentPackets 188
scalar World.node[80].nic.mac1609_4 SentAcknowledgements 0
scalar World.node[80].nic.mac1609_4 RetriesExceeded 0
scalar World.node[80].nic.mac1609_4 SNIRLostPackets 554
scalar World.node[80].nic.mac1609_4 RXTXLostPackets 0
scalar World.node[80].nic.mac1609_4 TotalLostPackets 554
scalar World.node[80].nic.mac1609_4 DroppedPacketsInMac 0
scalar World.node[80].nic.mac1609_4 TooLittleTime 0
scalar World.node[80].nic.mac1609_4 TimesIntoBackoff 188
scalar World.node[80].nic.mac1609_4 SlotsBackoff 1419
scalar World.node[80].nic.mac1609_4 NumInternalContention 0
scalar World.node[80].nic.mac1609_4 totalBusyTime 1.874049274658
scalar World.node[80].nic.mac1609_4 retriesExceeded:count 0
attr source org_car2x_veins_modules_mac_sigRetriesExceeded
scalar World.node[80].nic.mac1609_4 sentAcks:count 0
attr source org_car2x_veins_modules_mac_sigSentAck
scalar World.node[80].nic.mac1609_4 sentPackets:count 188
attr source org_car2x_veins_modules_mac_sigSentPacket
scalar World.node[80].nic.mac1609_4 collisions:count 0
attr source org_car2x_veins_modules_mac_sigCollision
scalar World.node[80].nic.mac1609_4 channelBusy:timeavg 0.16584506855379
attr source org_car2x_veins_modules_mac_sigChannelBusy
scalar World.node[21].appl.middleware.DenService transmission:count 340
attr source DenmSent
scalar World.node[21].appl.middleware.DenService reception:count 41028
attr source DenmReceived
scalar World.node[21].nic.phy80211p busyTime 0.13986970464139
scalar World.node[21].nic.mac1609_4 ReceivedUnicastPackets 0
scalar World.node[21].nic.mac1609_4 ReceivedBroadcasts 46124
scalar World.node[21].nic.mac1609_4 SentPackets 1184
scalar World.node[21].nic.mac1609_4 SentAcknowledgements 0
scalar World.node[21].nic.mac1609_4 RetriesExceeded 0
scalar World.node[21].nic.mac1609_4 SNIRLostPackets 1704
scalar World.node[21].nic.mac1609_4 RXTXLostPackets 5
scalar World.node[21].nic.mac1609_4 TotalLostPackets 1709
scalar World.node[21].nic.mac1609_4 DroppedPacketsInMac 0
scalar World.node[21].nic.mac1609_4 TooLittleTime 0
scalar World.node[21].nic.mac1609_4 TimesIntoBackoff 1257
scalar World.node[21].nic.mac1609_4 SlotsBackoff 5089
scalar World.node[21].nic.mac1609_4 NumInternalContention 0
scalar World.node[21].nic.mac1609_4 totalBusyTime 10.004794528198
scalar World.node[21].nic.mac1609_4 retriesExceeded:count 0
attr source org_car2x_veins_modules_mac_sigRetriesExceeded
scalar World.node[21].nic.mac1609_4 sentAcks:count 0
attr source org_car2x_veins_modules_mac_sigSentAck
scalar World.node[21].nic.mac1609_4 sentPackets:count 1184
attr source org_car2x_veins_modules_mac_sigSentPacket
scalar World.node[21].nic.mac1609_4 collisions:count 0
attr source org_car2x_veins_modules_mac_sigCollision
scalar World.node[21].nic.mac1609_4 channelBusy:timeavg 0.14071440967934
attr source org_car2x_veins_modules_mac_sigChannelBusy
scalar World.node[22].appl.middleware.DenService transmission:count 140
attr source DenmSent
scalar World.node[22].appl.middleware.DenService reception:count 40801
attr source DenmReceived
scalar World.node[22].nic.phy80211p busyTime 0.14116897727277
scalar World.node[22].nic.mac1609_4 ReceivedUnicastPackets 0
scalar World.node[22].nic.mac1609_4 ReceivedBroadcasts 46012
scalar World.node[22].nic.mac1609_4 SentPackets 1173
scalar World.node[22].nic.mac1609_4 SentAcknowledgements 0
scalar World.node[22].nic.mac1609_4 RetriesExceeded 0
scalar World.node[22].nic.mac1609_4 SNIRLostPackets 1792
scalar World.node[22].nic.mac1609_4 RXTXLostPackets 0
scalar World.node[22].nic.mac1609_4 TotalLostPackets 1792
scalar World.node[22].nic.mac1609_4 DroppedPacketsInMac 0
scalar World.node[22].nic.mac1609_4 TooLittleTime 0
scalar World.node[22].nic.mac1609_4 TimesIntoBackoff 1173
scalar World.node[22].nic.mac1609_4 SlotsBackoff 4808
scalar World.node[22].nic.mac1609_4 NumInternalContention 0
scalar World.node[22].nic.mac1609_4 totalBusyTime 9.959407779436
scalar World.node[22].nic.mac1609_4 retriesExceeded:count 0
attr source org_car2x_veins_modules_mac_sigRetriesExceeded
scalar World.node[22].nic.mac1609_4 sentAcks:count 0
attr source org_car2x_veins_modules_mac_sigSentAck
scalar World.node[22].nic.mac1609_4 sentPackets:count 1173
attr source org_car2x_veins_modules_mac_sigSentPacket
scalar World.node[22].nic.mac1609_4 collisions:count 0
attr source org_car2x_veins_modules_mac_sigCollision
scalar World.node[22].nic.mac1609_4 channelBusy:timeavg 0.1414688605034
attr source org_car2x_veins_modules_mac_sigChannelBusy
scalar World.node[46].appl.middleware.DenService transmission:count 384
attr source DenmSent
scalar World.node[46].appl.middleware.DenService reception:count 32299
attr source DenmReceived
scalar World.node[46].nic.phy80211p busyTime 0.16044684536096
scalar World.node[46].nic.mac1609_4 ReceivedUnicastPackets 0
scalar World.node[46].nic.mac1609_4 ReceivedBroadcasts 35871
scalar World.node[46].nic.mac1609_4 SentPackets 807
scalar World.node[46].nic.mac1609_4 SentAcknowledgements 0
scalar World.node[46].nic.mac1609_4 RetriesExceeded 0
scalar World.node[46].nic.mac1609_4 SNIRLostPackets 1685
scalar World.node[46].nic.mac1609_4 RXTXLostPackets 0
scalar World.node[46].nic.mac1609_4 TotalLostPackets 1685
scalar World.node[46].nic.mac1609_4 DroppedPacketsInMac 0
scalar World.node[46].nic.mac1609_4 TooLittleTime 0
scalar World.node[46].nic.mac1609_4 TimesIntoBackoff 807
scalar World.node[46].nic.mac1609_4 SlotsBackoff 3591
scalar World.node[46].nic.mac1609_4 NumInternalContention 0
scalar World.node[46].nic.mac1609_4 totalBusyTime 7.764496689363
scalar World.node[46].nic.mac1609_4 retriesExceeded:count 0
attr source org_car2x_veins_modules_mac_sigRetriesExceeded
scalar World.node[46].nic.mac1609_4 sentAcks:count 0
attr source org_car2x_veins_modules_mac_sigSentAck
scalar World.node[46].nic.mac1609_4 sentPackets:count 807
attr source org_car2x_veins_modules_mac_sigSentPacket
scalar World.node[46].nic.mac1609_4 collisions:count 0
attr source org_car2x_veins_modules_mac_sigCollision
scalar World.node[46].nic.mac1609_4 channelBusy:timeavg 0.16009271524473
attr source org_car2x_veins_modules_mac_sigChannelBusy
scalar World.node[57].appl.middleware.DenService transmission:count 0
attr source DenmSent
scalar World.node[57].appl.middleware.DenService reception:count 28266
attr source DenmReceived
scalar World.node[57].nic.phy80211p busyTime 0.16458992665048
scalar World.node[57].nic.mac1609_4 ReceivedUnicastPackets 0
scalar World.node[57].nic.mac1609_4 ReceivedBroadcasts 31031
scalar World.node[57].nic.mac1609_4 SentPackets 681
scalar World.node[57].nic.mac1609_4 SentAcknowledgements 0
scalar World.node[57].nic.mac1609_4 RetriesExceeded 0
scalar World.node[57].nic.mac1609_4 SNIRLostPackets 1526
scalar World.node[57].nic.mac1609_4 RXTXLostPackets 329
scalar World.node[57].nic.mac1609_4 TotalLostPackets 1855
scalar World.node[57].nic.mac1609_4 DroppedPacketsInMac 0
scalar World.node[57].nic.mac1609_4 TooLittleTime 0
scalar World.node[57].nic.mac1609_4 TimesIntoBackoff 992
scalar World.node[57].nic.mac1609_4 SlotsBackoff 7331
scalar World.node[57].nic.mac1609_4 NumInternalContention 0
scalar World.node[57].nic.mac1609_4 totalBusyTime 6.721481907488
scalar World.node[57].nic.mac1609_4 retriesExceeded:count 0
attr source org_car2x_veins_modules_mac_sigRetriesExceeded
scalar World.node[57].nic.mac1609_4 sentAcks:count 0
attr source org_car2x_veins_modules_mac_sigSentAck
scalar World.node[57].nic.mac1609_4 sentPackets:count 681
attr source org_car2x_veins_modules_mac_sigSentPacket
scalar World.node[57].nic.mac1609_4 collisions:count 0
attr source org_car2x_veins_modules_mac_sigCollision
scalar World.node[57].nic.mac1609_4 channelBusy:timeavg 0.16433941094114
attr source org_car2x_veins_modules_mac_sigChannelBusy
scalar World.node[72].appl.middleware.DenService transmission:count 18
attr source DenmSent
scalar World.node[72].appl.middleware.DenService reception:count 17706
attr source DenmReceived
scalar World.node[72].nic.phy80211p busyTime 0.17100305220885
scalar World.node[72].nic.mac1609_4 ReceivedUnicastPackets 0
scalar World.node[72].nic.mac1609_4 ReceivedBroadcasts 19459
scalar World.node[72].nic.mac1609_4 SentPackets 414
scalar World.node[72].nic.mac1609_4 SentAcknowledgements 0
scalar World.node[72].nic.mac1609_4 RetriesExceeded 0
scalar World.node[72].nic.mac1609_4 SNIRLostPackets 1154
scalar World.node[72].nic.mac1609_4 RXTXLostPackets 0
scalar World.node[72].nic.mac1609_4 TotalLostPackets 1154
scalar World.node[72].nic.mac1609_4 DroppedPacketsInMac 0
scalar World.node[72].nic.mac1609_4 TooLittleTime 0
scalar World.node[72].nic.mac1609_4 TimesIntoBackoff 424
scalar World.node[72].nic.mac1609_4 SlotsBackoff 3095
scalar World.node[72].nic.mac1609_4 NumInternalContention 0
scalar World.node[72].nic.mac1609_4 totalBusyTime 4.215082120468
scalar World.node[72].nic.mac1609_4 retriesExceeded:count 0
attr source org_car2x_veins_modules_mac_sigRetriesExceeded
scalar World.node[72].nic.mac1609_4 sentAcks:count 0
attr source org_car2x_veins_modules_mac_sigSentAck
scalar World.node[72].nic.mac1609_4 sentPackets:count 414
attr source org_car2x_veins_modules_mac_sigSentPacket
scalar World.node[72].nic.mac1609_4 collisions:count 0
attr source org_car2x_veins_modules_mac_sigCollision
scalar World.node[72].nic.mac1609_4 channelBusy:timeavg 0.16928040644451
attr source org_car2x_veins_modules_mac_sigChannelBusy
scalar World.node[69].appl.middleware.DenService transmission:count 179
attr source DenmSent
scalar World.node[69].appl.middleware.DenService reception:count 19586
attr source DenmReceived
scalar World.node[69].nic.phy80211p busyTime 0.17014628571433
scalar World.node[69].nic.mac1609_4 ReceivedUnicastPackets 0
scalar World.node[69].nic.mac1609_4 ReceivedBroadcasts 21809
scalar World.node[69].nic.mac1609_4 SentPackets 466
scalar World.node[69].nic.mac1609_4 SentAcknowledgements 0
scalar World.node[69].nic.mac1609_4 RetriesExceeded 0
scalar World.node[69].nic.mac1609_4 SNIRLostPackets 1241
scalar World.node[69].nic.mac1609_4 RXTXLostPackets 25
scalar World.node[69].nic.mac1609_4 TotalLostPackets 1266
scalar World.node[69].nic.mac1609_4 DroppedPacketsInMac 0
scalar World.node[69].nic.mac1609_4 TooLittleTime 0
scalar World.node[69].nic.mac1609_4 TimesIntoBackoff 687
scalar World.node[69].nic.mac1609_4 SlotsBackoff 3243
scalar World.node[69].nic.mac1609_4 NumInternalContention 0
scalar World.node[69].nic.mac1609_4 totalBusyTime 4.716099942604
scalar World.node[69].nic.mac1609_4 retriesExceeded:count 0
attr source org_car2x_veins_modules_mac_sigRetriesExceeded
scalar World.node[69].nic.mac1609_4 sentAcks:count 0
attr source org_car2x_veins_modules_mac_sigSentAck
scalar World.node[69].nic.mac1609_4 sentPackets:count 466
attr source org_car2x_veins_modules_mac_sigSentPacket
scalar World.node[69].nic.mac1609_4 collisions:count 0
attr source org_car2x_veins_modules_mac_sigCollision
scalar World.node[69].nic.mac1609_4 channelBusy:timeavg 0.16843214080732
attr source org_car2x_veins_modules_mac_sigChannelBusy
scalar World.node[82].appl.middleware.DenService transmission:count 67
attr source DenmSent
scalar World.node[82].appl.middleware.DenService reception:count 12152
attr source DenmReceived
scalar World.node[82].nic.phy80211p busyTime 0.16745095238094
scalar World.node[82].nic.mac1609_4 ReceivedUnicastPackets 0
scalar World.node[82].nic.mac1609_4 ReceivedBroadcasts 13413
scalar World.node[82].nic.mac1609_4 SentPackets 279
scalar World.node[82].nic.mac1609_4 SentAcknowledgements 0
scalar World.node[82].nic.mac1609_4 RetriesExceeded 0
scalar World.node[82].nic.mac1609_4 SNIRLostPackets 181
scalar World.node[82].nic.mac1609_4 RXTXLostPackets 0
scalar World.node[82].nic.mac1609_4 TotalLostPackets 181
scalar World.node[82].nic.mac1609_4 DroppedPacketsInMac 0
scalar World.node[82].nic.mac1609_4 TooLittleTime 0
scalar World.node[82].nic.mac1609_4 TimesIntoBackoff 279
scalar World.node[82].nic.mac1609_4 SlotsBackoff 1561
scalar World.node[82].nic.mac1609_4 NumInternalContention 0
scalar World.node[82].nic.mac1609_4 totalBusyTime 2.843063189164
scalar World.node[82].nic.mac1609_4 retriesExceeded:count 0
attr source org_car2x_veins_modules_mac_sigRetriesExceeded
scalar World.node[82].nic.mac1609_4 sentAcks:count 0
attr source org_car2x_veins_modules_mac_sigSentAck
scalar World.node[82].nic.mac1609_4 sentPackets:count 279
attr source org_car2x_veins_modules_mac_sigSentPacket
scalar World.node[82].nic.mac1609_4 collisions:count 0
attr source org_car2x_veins_modules_mac_sigCollision
scalar World.node[82].nic.mac1609_4 channelBusy:timeavg 0.16922995173594
attr source org_car2x_veins_modules_mac_sigChannelBusy
scalar World.node[47].appl.middleware.DenService transmission:count 240
attr source DenmSent
scalar World.node[47].appl.middleware.DenService reception:count 35141
attr source DenmReceived
scalar World.node[47].nic.phy80211p busyTime 0.15585325884556
scalar World.node[47].nic.mac1609_4 ReceivedUnicastPackets 0
scalar World.node[47].nic.mac1609_4 ReceivedBroadcasts 39274
scalar World.node[47].nic.mac1609_4 SentPackets 894
scalar World.node[47].nic.mac1609_4 SentAcknowledgements 0
scalar World.node[47].nic.mac1609_4 RetriesExceeded 0
scalar World.node[47].nic.mac1609_4 SNIRLostPackets 1121
scalar World.node[47].nic.mac1609_4 RXTXLostPackets 0
scalar World.node[47].nic.mac1609_4 TotalLostPackets 1121
scalar World.node[47].nic.mac1609_4 DroppedPacketsInMac 0
scalar World.node[47].nic.mac1609_4 TooLittleTime 0
scalar World.node[47].nic.mac1609_4 TimesIntoBackoff 917
scalar World.node[47].nic.mac1609_4 SlotsBackoff 3945
scalar World.node[47].nic.mac1609_4 NumInternalContention 0
scalar World.node[47].nic.mac1609_4 totalBusyTime 8.43031833996
scalar World.node[47].nic.mac1609_4 retriesExceeded:count 0
attr source org_car2x_veins_modules_mac_sigRetriesExceeded
scalar World.node[47].nic.mac1609_4 sentAcks:count 0
attr source org_car2x_veins_modules_mac_sigSentAck
scalar World.node[47].nic.mac1609_4 sentPackets:count 894
attr source org_car2x_veins_modules_mac_sigSentPacket
scalar World.node[47].nic.mac1609_4 collisions:count 0
attr source org_car2x_veins_modules_mac_sigCollision
scalar World.node[47].nic.mac1609_4 channelBusy:timeavg 0.15698916834201
attr source org_car2x_veins_modules_mac_sigChannelBusy
scalar World.node[56].appl.middleware.DenService transmission:count 348
attr source DenmSent
scalar World.node[56].appl.middleware.DenService reception:count 31297
attr source DenmReceived
scalar World.node[56].nic.phy80211p busyTime 0.16587064587987
scalar World.node[56].nic.mac1609_4 ReceivedUnicastPackets 0
scalar World.node[56].nic.mac1609_4 ReceivedBroadcasts 34669
scalar World.node[56].nic.mac1609_4 SentPackets 748
scalar World.node[56].nic.mac1609_4 SentAcknowledgements 0
scalar World.node[56].nic.mac1609_4 RetriesExceeded 0
scalar World.node[56].nic.mac1609_4 SNIRLostPackets 1311
scalar World.node[56].nic.mac1609_4 RXTXLostPackets 2
scalar World.node[56].nic.mac1609_4 TotalLostPackets 1313
scalar World.node[56].nic.mac1609_4 DroppedPacketsInMac 0
scalar World.node[56].nic.mac1609_4 TooLittleTime 0
scalar World.node[56].nic.mac1609_4 TimesIntoBackoff 987
scalar World.node[56].nic.mac1609_4 SlotsBackoff 4674
scalar World.node[56].nic.mac1609_4 NumInternalContention 0
scalar World.node[56].nic.mac1609_4 totalBusyTime 7.461668744616
scalar World.node[56].nic.mac1609_4 retriesExceeded:count 0
attr source org_car2x_veins_modules_mac_sigRetriesExceeded
scalar World.node[56].nic.mac1609_4 sentAcks:count 0
attr source org_car2x_veins_modules_mac_sigSentAck
scalar World.node[56].nic.mac1609_4 sentPackets:count 748
attr source org_car2x_veins_modules_mac_sigSentPacket
scalar World.node[56].nic.mac1609_4 collisions:count 0
attr source org_car2x_veins_modules_mac_sigCollision
scalar World.node[56].nic.mac1609_4 channelBusy:timeavg 0.16618415912298
attr source org_car2x_veins_modules_mac_sigChannelBusy
scalar World.node[48].appl.middleware.DenService transmission:count 291
attr source DenmSent
scalar World.node[48].appl.middleware.DenService reception:count 36655
attr source DenmReceived
scalar World.node[48].nic.phy80211p busyTime 0.16183609022567
scalar World.node[48].nic.mac1609_4 ReceivedUnicastPackets 0
scalar World.node[48].nic.mac1609_4 ReceivedBroadcasts 40406
scalar World.node[48].nic.mac1609_4 SentPackets 886
scalar World.node[48].nic.mac1609_4 SentAcknowledgements 0
[...]
attr source org_car2x_veins_modules_mac_sigSentPacket
scalar World.node[147].nic.mac1609_4 collisions:count 0
attr source org_car2x_veins_modules_mac_sigCollision
scalar World.node[147].nic.mac1609_4 channelBusy:timeavg 0.17954952395396
attr source org_car2x_veins_modules_mac_sigChannelBusy
scalar World.node[132].appl.middleware.DenService transmission:count 169
attr source DenmSent
scalar World.node[132].appl.middleware.DenService reception:count 20865
attr source DenmReceived
scalar World.node[132].nic.phy80211p busyTime 0.1781715555556
scalar World.node[132].nic.mac1609_4 ReceivedUnicastPackets 0
scalar World.node[132].nic.mac1609_4 ReceivedBroadcasts 22724
scalar World.node[132].nic.mac1609_4 SentPackets 449
scalar World.node[132].nic.mac1609_4 SentAcknowledgements 0
scalar World.node[132].nic.mac1609_4 RetriesExceeded 0
scalar World.node[132].nic.mac1609_4 SNIRLostPackets 638
scalar World.node[132].nic.mac1609_4 RXTXLostPackets 0
scalar World.node[132].nic.mac1609_4 TotalLostPackets 638
scalar World.node[132].nic.mac1609_4 DroppedPacketsInMac 0
scalar World.node[132].nic.mac1609_4 TooLittleTime 0
scalar World.node[132].nic.mac1609_4 TimesIntoBackoff 449
scalar World.node[132].nic.mac1609_4 SlotsBackoff 2089
scalar World.node[132].nic.mac1609_4 NumInternalContention 0
scalar World.node[132].nic.mac1609_4 totalBusyTime 4.836777
scalar World.node[132].nic.mac1609_4 retriesExceeded:count 0
attr source org_car2x_veins_modules_mac_sigRetriesExceeded
scalar World.node[132].nic.mac1609_4 sentAcks:count 0
attr source org_car2x_veins_modules_mac_sigSentAck
scalar World.node[132].nic.mac1609_4 sentPackets:count 449
attr source org_car2x_veins_modules_mac_sigSentPacket
scalar World.node[132].nic.mac1609_4 collisions:count 0
attr source org_car2x_veins_modules_mac_sigCollision
scalar World.node[132].nic.mac1609_4 channelBusy:timeavg 0.17913988888894
attr source org_car2x_veins_modules_mac_sigChannelBusy
scalar World.node[152].appl.middleware.DenService transmission:count 0
attr source DenmSent
scalar World.node[152].appl.middleware.DenService reception:count 6348
attr source DenmReceived
scalar World.node[152].nic.phy80211p busyTime 0.1831535802469
scalar World.node[152].nic.mac1609_4 ReceivedUnicastPackets 0
scalar World.node[152].nic.mac1609_4 ReceivedBroadcasts 6847
scalar World.node[152].nic.mac1609_4 SentPackets 134
scalar World.node[152].nic.mac1609_4 SentAcknowledgements 0
scalar World.node[152].nic.mac1609_4 RetriesExceeded 0
scalar World.node[152].nic.mac1609_4 SNIRLostPackets 390
scalar World.node[152].nic.mac1609_4 RXTXLostPackets 4
scalar World.node[152].nic.mac1609_4 TotalLostPackets 394
scalar World.node[152].nic.mac1609_4 DroppedPacketsInMac 0
scalar World.node[152].nic.mac1609_4 TooLittleTime 0
scalar World.node[152].nic.mac1609_4 TimesIntoBackoff 150
scalar World.node[152].nic.mac1609_4 SlotsBackoff 1122
scalar World.node[152].nic.mac1609_4 NumInternalContention 0
scalar World.node[152].nic.mac1609_4 totalBusyTime 1.476110127923
scalar World.node[152].nic.mac1609_4 retriesExceeded:count 0
attr source org_car2x_veins_modules_mac_sigRetriesExceeded
scalar World.node[152].nic.mac1609_4 sentAcks:count 0
attr source org_car2x_veins_modules_mac_sigSentAck
scalar World.node[152].nic.mac1609_4 sentPackets:count 134
attr source org_car2x_veins_modules_mac_sigSentPacket
scalar World.node[152].nic.mac1609_4 collisions:count 0
attr source org_car2x_veins_modules_mac_sigCollision
scalar World.node[152].nic.mac1609_4 channelBusy:timeavg 0.18224382638332
attr source org_car2x_veins_modules_mac_sigChannelBusy
scalar World.node[153].appl.middleware.DenService transmission:count 0
attr source DenmSent
scalar World.node[153].appl.middleware.DenService reception:count 5479
attr source DenmReceived
scalar World.node[153].nic.phy80211p busyTime 0.17717828571427
scalar World.node[153].nic.mac1609_4 ReceivedUnicastPackets 0
scalar World.node[153].nic.mac1609_4 ReceivedBroadcasts 5901
scalar World.node[153].nic.mac1609_4 SentPackets 116
scalar World.node[153].nic.mac1609_4 SentAcknowledgements 0
scalar World.node[153].nic.mac1609_4 RetriesExceeded 0
scalar World.node[153].nic.mac1609_4 SNIRLostPackets 157
scalar World.node[153].nic.mac1609_4 RXTXLostPackets 0
scalar World.node[153].nic.mac1609_4 TotalLostPackets 157
scalar World.node[153].nic.mac1609_4 DroppedPacketsInMac 0
scalar World.node[153].nic.mac1609_4 TooLittleTime 0
scalar World.node[153].nic.mac1609_4 TimesIntoBackoff 119
scalar World.node[153].nic.mac1609_4 SlotsBackoff 935
scalar World.node[153].nic.mac1609_4 NumInternalContention 0
scalar World.node[153].nic.mac1609_4 totalBusyTime 1.240127112554
scalar World.node[153].nic.mac1609_4 retriesExceeded:count 0
attr source org_car2x_veins_modules_mac_sigRetriesExceeded
scalar World.node[153].nic.mac1609_4 sentAcks:count 0
attr source org_car2x_veins_modules_mac_sigSentAck
scalar World.node[153].nic.mac1609_4 sentPackets:count 116
attr source org_car2x_veins_modules_mac_sigSentPacket
scalar World.node[153].nic.mac1609_4 collisions:count 0
attr source org_car2x_veins_modules_mac_sigCollision
scalar World.node[153].nic.mac1609_4 channelBusy:timeavg 0.1771701600357
attr source org_car2x_veins_modules_mac_sigChannelBusy
scalar World.node[118].appl.middleware.DenService transmission:count 318
attr source DenmSent
scalar World.node[118].appl.middleware.DenService reception:count 33309
attr source DenmReceived
scalar World.node[118].nic.phy80211p busyTime 0.18316849642021
scalar World.node[118].nic.mac1609_4 ReceivedUnicastPackets 0
scalar World.node[118].nic.mac1609_4 ReceivedBroadcasts 36164
scalar World.node[118].nic.mac1609_4 SentPackets 631
scalar World.node[118].nic.mac1609_4 SentAcknowledgements 0
scalar World.node[118].nic.mac1609_4 RetriesExceeded 0
scalar World.node[118].nic.mac1609_4 SNIRLostPackets 1065
scalar World.node[118].nic.mac1609_4 RXTXLostPackets 4
scalar World.node[118].nic.mac1609_4 TotalLostPackets 1069
scalar World.node[118].nic.mac1609_4 DroppedPacketsInMac 0
scalar World.node[118].nic.mac1609_4 TooLittleTime 0
scalar World.node[118].nic.mac1609_4 TimesIntoBackoff 640
scalar World.node[118].nic.mac1609_4 SlotsBackoff 2884
scalar World.node[118].nic.mac1609_4 NumInternalContention 0
scalar World.node[118].nic.mac1609_4 totalBusyTime 7.683324463686
scalar World.node[118].nic.mac1609_4 retriesExceeded:count 0
attr source org_car2x_veins_modules_mac_sigRetriesExceeded
scalar World.node[118].nic.mac1609_4 sentAcks:count 0
attr source org_car2x_veins_modules_mac_sigSentAck
scalar World.node[118].nic.mac1609_4 sentPackets:count 631
attr source org_car2x_veins_modules_mac_sigSentPacket
scalar World.node[118].nic.mac1609_4 collisions:count 0
attr source org_car2x_veins_modules_mac_sigCollision
scalar World.node[118].nic.mac1609_4 channelBusy:timeavg 0.18337289889481
attr source org_car2x_veins_modules_mac_sigChannelBusy
scalar World.node[115].appl.middleware.DenService transmission:count 356
attr source DenmSent
scalar World.node[115].appl.middleware.DenService reception:count 36253
attr source DenmReceived
scalar World.node[115].nic.phy80211p busyTime 0.18378643326054
scalar World.node[115].nic.mac1609_4 ReceivedUnicastPackets 0
scalar World.node[115].nic.mac1609_4 ReceivedBroadcasts 39560
scalar World.node[115].nic.mac1609_4 SentPackets 682
scalar World.node[115].nic.mac1609_4 SentAcknowledgements 0
scalar World.node[115].nic.mac1609_4 RetriesExceeded 0
scalar World.node[115].nic.mac1609_4 SNIRLostPackets 1181
scalar World.node[115].nic.mac1609_4 RXTXLostPackets 10
scalar World.node[115].nic.mac1609_4 TotalLostPackets 1191
scalar World.node[115].nic.mac1609_4 DroppedPacketsInMac 0
scalar World.node[115].nic.mac1609_4 TooLittleTime 0
scalar World.node[115].nic.mac1609_4 TimesIntoBackoff 704
scalar World.node[115].nic.mac1609_4 SlotsBackoff 3275
scalar World.node[115].nic.mac1609_4 NumInternalContention 0
scalar World.node[115].nic.mac1609_4 totalBusyTime 8.412222301599
scalar World.node[115].nic.mac1609_4 retriesExceeded:count 0
attr source org_car2x_veins_modules_mac_sigRetriesExceeded
scalar World.node[115].nic.mac1609_4 sentAcks:count 0
attr source org_car2x_veins_modules_mac_sigSentAck
scalar World.node[115].nic.mac1609_4 sentPackets:count 682
attr source org_car2x_veins_modules_mac_sigSentPacket
scalar World.node[115].nic.mac1609_4 collisions:count 0
attr source org_car2x_veins_modules_mac_sigCollision
scalar World.node[115].nic.mac1609_4 channelBusy:timeavg 0.18407488624957
attr source org_car2x_veins_modules_mac_sigChannelBusy
scalar World.node[54].appl.middleware.DenService transmission:count 979
attr source DenmSent
scalar World.node[54].appl.middleware.DenService reception:count 75574
attr source DenmReceived
scalar World.node[54].nic.phy80211p busyTime 0.16381111111099
scalar World.node[54].nic.mac1609_4 ReceivedUnicastPackets 0
scalar World.node[54].nic.mac1609_4 ReceivedBroadcasts 83113
scalar World.node[54].nic.mac1609_4 SentPackets 1799
scalar World.node[54].nic.mac1609_4 SentAcknowledgements 0
scalar World.node[54].nic.mac1609_4 RetriesExceeded 0
scalar World.node[54].nic.mac1609_4 SNIRLostPackets 2443
scalar World.node[54].nic.mac1609_4 RXTXLostPackets 46
scalar World.node[54].nic.mac1609_4 TotalLostPackets 2489
scalar World.node[54].nic.mac1609_4 DroppedPacketsInMac 0
scalar World.node[54].nic.mac1609_4 TooLittleTime 0
scalar World.node[54].nic.mac1609_4 TimesIntoBackoff 2258
scalar World.node[54].nic.mac1609_4 SlotsBackoff 9428
scalar World.node[54].nic.mac1609_4 NumInternalContention 0
scalar World.node[54].nic.mac1609_4 totalBusyTime 17.769912363687
scalar World.node[54].nic.mac1609_4 retriesExceeded:count 0
attr source org_car2x_veins_modules_mac_sigRetriesExceeded
scalar World.node[54].nic.mac1609_4 sentAcks:count 0
attr source org_car2x_veins_modules_mac_sigSentAck
scalar World.node[54].nic.mac1609_4 sentPackets:count 1799
attr source org_car2x_veins_modules_mac_sigSentPacket
scalar World.node[54].nic.mac1609_4 collisions:count 0
attr source org_car2x_veins_modules_mac_sigCollision
scalar World.node[54].nic.mac1609_4 channelBusy:timeavg 0.16453622558958
attr source org_car2x_veins_modules_mac_sigChannelBusy
scalar World.node[119].appl.middleware.DenService transmission:count 70
attr source DenmSent
scalar World.node[119].appl.middleware.DenService reception:count 33708
attr source DenmReceived
scalar World.node[119].nic.phy80211p busyTime 0.17948697247722
scalar World.node[119].nic.mac1609_4 ReceivedUnicastPackets 0
scalar World.node[119].nic.mac1609_4 ReceivedBroadcasts 36861
scalar World.node[119].nic.mac1609_4 SentPackets 726
scalar World.node[119].nic.mac1609_4 SentAcknowledgements 0
scalar World.node[119].nic.mac1609_4 RetriesExceeded 0
scalar World.node[119].nic.mac1609_4 SNIRLostPackets 1083
scalar World.node[119].nic.mac1609_4 RXTXLostPackets 8
scalar World.node[119].nic.mac1609_4 TotalLostPackets 1091
scalar World.node[119].nic.mac1609_4 DroppedPacketsInMac 0
scalar World.node[119].nic.mac1609_4 TooLittleTime 0
scalar World.node[119].nic.mac1609_4 TimesIntoBackoff 934
scalar World.node[119].nic.mac1609_4 SlotsBackoff 4143
scalar World.node[119].nic.mac1609_4 NumInternalContention 0
scalar World.node[119].nic.mac1609_4 totalBusyTime 7.858258210828
scalar World.node[119].nic.mac1609_4 retriesExceeded:count 0
attr source org_car2x_veins_modules_mac_sigRetriesExceeded
scalar World.node[119].nic.mac1609_4 sentAcks:count 0
attr source org_car2x_veins_modules_mac_sigSentAck
scalar World.node[119].nic.mac1609_4 sentPackets:count 726
attr source org_car2x_veins_modules_mac_sigSentPacket
scalar World.node[119].nic.mac1609_4 collisions:count 0
attr source org_car2x_veins_modules_mac_sigCollision
scalar World.node[119].nic.mac1609_4 channelBusy:timeavg 0.18023528006502
attr source org_car2x_veins_modules_mac_sigChannelBusy
scalar World.node[113].appl.middleware.DenService transmission:count 0
attr source DenmSent
scalar World.node[113].appl.middleware.DenService reception:count 39181
attr source DenmReceived
scalar World.node[113].nic.phy80211p busyTime 0.18395950819683
scalar World.node[113].nic.mac1609_4 ReceivedUnicastPackets 0
scalar World.node[113].nic.mac1609_4 ReceivedBroadcasts 42309
scalar World.node[113].nic.mac1609_4 SentPackets 658
scalar World.node[113].nic.mac1609_4 SentAcknowledgements 0
scalar World.node[113].nic.mac1609_4 RetriesExceeded 0
scalar World.node[113].nic.mac1609_4 SNIRLostPackets 1293
scalar World.node[113].nic.mac1609_4 RXTXLostPackets 0
scalar World.node[113].nic.mac1609_4 TotalLostPackets 1293
scalar World.node[113].nic.mac1609_4 DroppedPacketsInMac 0
scalar World.node[113].nic.mac1609_4 TooLittleTime 0
scalar World.node[113].nic.mac1609_4 TimesIntoBackoff 678
scalar World.node[113].nic.mac1609_4 SlotsBackoff 5121
scalar World.node[113].nic.mac1609_4 NumInternalContention 0
scalar World.node[113].nic.mac1609_4 totalBusyTime 8.990106543704
scalar World.node[113].nic.mac1609_4 retriesExceeded:count 0
attr source org_car2x_veins_modules_mac_sigRetriesExceeded
scalar World.node[113].nic.mac1609_4 sentAcks:count 0
attr source org_car2x_veins_modules_mac_sigSentAck
scalar World.node[113].nic.mac1609_4 sentPackets:count 658
attr source org_car2x_veins_modules_mac_sigSentPacket
scalar World.node[113].nic.mac1609_4 collisions:count 0
attr source org_car2x_veins_modules_mac_sigCollision
scalar World.node[113].nic.mac1609_4 channelBusy:timeavg 0.18422349474814
attr source org_car2x_veins_modules_mac_sigChannelBusy
scalar World.node[71].appl.middleware.DenService transmission:count 828
attr source DenmSent
scalar World.node[71].appl.middleware.DenService reception:count 70047
attr source DenmReceived
scalar World.node[71].nic.phy80211p busyTime 0.17589519913875
scalar World.node[71].nic.mac1609_4 ReceivedUnicastPackets 0
scalar World.node[71].nic.mac1609_4 ReceivedBroadcasts 77133
scalar World.node[71].nic.mac1609_4 SentPackets 1468
scalar World.node[71].nic.mac1609_4 SentAcknowledgements 0
scalar World.node[71].nic.mac1609_4 RetriesExceeded 0
scalar World.node[71].nic.mac1609_4 SNIRLostPackets 1938
scalar World.node[71].nic.mac1609_4 RXTXLostPackets 1
scalar World.node[71].nic.mac1609_4 TotalLostPackets 1939
scalar World.node[71].nic.mac1609_4 DroppedPacketsInMac 0
scalar World.node[71].nic.mac1609_4 TooLittleTime 0
scalar World.node[71].nic.mac1609_4 TimesIntoBackoff 1572
scalar World.node[71].nic.mac1609_4 SlotsBackoff 6308
scalar World.node[71].nic.mac1609_4 NumInternalContention 0
scalar World.node[71].nic.mac1609_4 totalBusyTime 16.426053292317
scalar World.node[71].nic.mac1609_4 retriesExceeded:count 0
attr source org_car2x_veins_modules_mac_sigRetriesExceeded
scalar World.node[71].nic.mac1609_4 sentAcks:count 0
attr source org_car2x_veins_modules_mac_sigSentAck
scalar World.node[71].nic.mac1609_4 sentPackets:count 1468
attr source org_car2x_veins_modules_mac_sigSentPacket
scalar World.node[71].nic.mac1609_4 collisions:count 0
attr source org_car2x_veins_modules_mac_sigCollision
scalar World.node[71].nic.mac1609_4 channelBusy:timeavg 0.17681435190858
attr source org_car2x_veins_modules_mac_sigChannelBusy
scalar World.node[73].appl.middleware.DenService transmission:count 153
attr source DenmSent
scalar World.node[73].appl.middleware.DenService reception:count 68460
attr source DenmReceived
scalar World.node[73].nic.phy80211p busyTime 0.1749449452953
scalar World.node[73].nic.mac1609_4 ReceivedUnicastPackets 0
scalar World.node[73].nic.mac1609_4 ReceivedBroadcasts 74819
scalar World.node[73].nic.mac1609_4 SentPackets 1523
scalar World.node[73].nic.mac1609_4 SentAcknowledgements 0
scalar World.node[73].nic.mac1609_4 RetriesExceeded 0
scalar World.node[73].nic.mac1609_4 SNIRLostPackets 2626
scalar World.node[73].nic.mac1609_4 RXTXLostPackets 0
scalar World.node[73].nic.mac1609_4 TotalLostPackets 2626
scalar World.node[73].nic.mac1609_4 DroppedPacketsInMac 0
scalar World.node[73].nic.mac1609_4 TooLittleTime 0
scalar World.node[73].nic.mac1609_4 TimesIntoBackoff 1523
scalar World.node[73].nic.mac1609_4 SlotsBackoff 10742
scalar World.node[73].nic.mac1609_4 NumInternalContention 0
scalar World.node[73].nic.mac1609_4 totalBusyTime 16.017644837122
scalar World.node[73].nic.mac1609_4 retriesExceeded:count 0
attr source org_car2x_veins_modules_mac_sigRetriesExceeded
scalar World.node[73].nic.mac1609_4 sentAcks:count 0
attr source org_car2x_veins_modules_mac_sigSentAck
scalar World.node[73].nic.mac1609_4 sentPackets:count 1523
attr source org_car2x_veins_modules_mac_sigSentPacket
scalar World.node[73].nic.mac1609_4 collisions:count 0
attr source org_car2x_veins_modules_mac_sigCollision
scalar World.node[73].nic.mac1609_4 channelBusy:timeavg 0.17524775532946
attr source org_car2x_veins_modules_mac_sigChannelBusy
scalar World.node[108].appl.middleware.DenService transmission:count 450
attr source DenmSent
scalar World.node[108].appl.middleware.DenService reception:count 44279
attr source DenmReceived
scalar World.node[108].nic.phy80211p busyTime 0.17848932173917
scalar World.node[108].nic.mac1609_4 ReceivedUnicastPackets 0
scalar World.node[108].nic.mac1609_4 ReceivedBroadcasts 48478
scalar World.node[108].nic.mac1609_4 SentPackets 957
scalar World.node[108].nic.mac1609_4 SentAcknowledgements 0
scalar World.node[108].nic.mac1609_4 RetriesExceeded 0
scalar World.node[108].nic.mac1609_4 SNIRLostPackets 1216
scalar World.node[108].nic.mac1609_4 RXTXLostPackets 6
scalar World.node[108].nic.mac1609_4 TotalLostPackets 1222
scalar World.node[108].nic.mac1609_4 DroppedPacketsInMac 0
scalar World.node[108].nic.mac1609_4 TooLittleTime 0
scalar World.node[108].nic.mac1609_4 TimesIntoBackoff 1075
scalar World.node[108].nic.mac1609_4 SlotsBackoff 4614
scalar World.node[108].nic.mac1609_4 NumInternalContention 0
scalar World.node[108].nic.mac1609_4 totalBusyTime 10.316147799048
scalar World.node[108].nic.mac1609_4 retriesExceeded:count 0
attr source org_car2x_veins_modules_mac_sigRetriesExceeded
scalar World.node[108].nic.mac1609_4 sentAcks:count 0
attr source org_car2x_veins_modules_mac_sigSentAck
scalar World.node[108].nic.mac1609_4 sentPackets:count 957
attr source org_car2x_veins_modules_mac_sigSentPacket
scalar World.node[108].nic.mac1609_4 collisions:count 0
attr source org_car2x_veins_modules_mac_sigCollision
scalar World.node[108].nic.mac1609_4 channelBusy:timeavg 0.17941126607044
attr source org_car2x_veins_modules_mac_sigChannelBusy
scalar World.node[102].appl.middleware.DenService transmission:count 560
attr source DenmSent
scalar World.node[102].appl.middleware.DenService reception:count 51122
attr source DenmReceived
scalar World.node[102].nic.phy80211p busyTime 0.17882081694401
scalar World.node[102].nic.mac1609_4 ReceivedUnicastPackets 0
scalar World.node[102].nic.mac1609_4 ReceivedBroadcasts 55974
scalar World.node[102].nic.mac1609_4 SentPackets 1017
scalar World.node[102].nic.mac1609_4 SentAcknowledgements 0
scalar World.node[102].nic.mac1609_4 RetriesExceeded 0
scalar World.node[102].nic.mac1609_4 SNIRLostPackets 1247
scalar World.node[102].nic.mac1609_4 RXTXLostPackets 0
scalar World.node[102].nic.mac1609_4 TotalLostPackets 1247
scalar World.node[102].nic.mac1609_4 DroppedPacketsInMac 0
scalar World.node[102].nic.mac1609_4 TooLittleTime 0
scalar World.node[102].nic.mac1609_4 TimesIntoBackoff 1024
scalar World.node[102].nic.mac1609_4 SlotsBackoff 4127
scalar World.node[102].nic.mac1609_4 NumInternalContention 0
scalar World.node[102].nic.mac1609_4 totalBusyTime 11.88073877137
scalar World.node[102].nic.mac1609_4 retriesExceeded:count 0
attr source org_car2x_veins_modules_mac_sigRetriesExceeded
scalar World.node[102].nic.mac1609_4 sentAcks:count 0
attr source org_car2x_veins_modules_mac_sigSentAck
scalar World.node[102].nic.mac1609_4 sentPackets:count 1017
attr source org_car2x_veins_modules_mac_sigSentPacket
scalar World.node[102].nic.mac1609_4 collisions:count 0
attr source org_car2x_veins_modules_mac_sigCollision
scalar World.node[102].nic.mac1609_4 channelBusy:timeavg 0.17973886189666
attr source org_car2x_veins_modules_mac_sigChannelBusy

