version 2
run veins-0-20250120-21:13:06-60337
attr configname veins
attr datetime 20250120-21:13:06
attr experiment veins
attr inifile omnetpp.ini
attr iterationvars ""
attr iterationvarsf ""
attr measurement ""
attr network artery.veins.World
attr processid 60337
attr repetition 0
attr replication #0
attr resultdir results
attr runnumber 0
attr seedset 0
param *.playgroundSizeX 2000m
param *.playgroundSizeY 1200m
param *.playgroundSizeZ 50m
param *.connectionManager.maxInterfDist 500m
param *.connectionManager.sendDirect true
param *.connectionManager.coreDebug false
param *.node[*].nic.mac1609_4.txPower 200mW
param *.node[*].nic.phy80211p.decider "xmldoc(\"config.xml\")"
param *.node[*].nic.phy80211p.analogueModels "xmldoc(\"config.xml\")"
param *.node[*].appl.middleware.updateInterval 0.1s
param *.node[*].appl.middleware.datetime "\"2025-03-10 12:00:00\""
param *.node[*].appl.middleware.services "xmldoc(\"services.xml\")"
param *.node[*].appl.middleware.DenService.useCases "xmldoc(\"den-use-cases.xml\")"
param *.withStoryboard true
param *.storyboard.python "\"demo\""
param *.traci.launcher.additionalOptions "\"--log-buffered --log-file=sumo_warnings.log\""
param *.traci.core.version -1
param *.traci.launcher.typename "\"PosixLauncher\""
param *.traci.launcher.sumocfg "\"Slott.sumo.cfg\""
param *.traci.launcher.sumo "\"sumo-gui\""
param *.node[*].wlan[*].typename "\"VanetNic\""
param *.node[*].wlan[*].radio.channelNumber 180
param *.node[*].wlan[*].radio.carrierFrequency "5.9 GHz"
param *.node[*].wlan[*].radio.transmitter.power "200 mW"
param *.node[*].middleware.updateInterval 0.1s
param *.node[*].middleware.datetime "\"2025-03-10 12:00:00\""
param *.node[*].middleware.services "xmldoc(\"services.xml\")"
param *.node[*].middleware.DenService.useCases "xmldoc(\"den-use-cases.xml\")"

scalar World.traci.launcher port 36193
scalar World.node[0].appl.middleware.DenService transmission:count 134
attr source DenmSent
scalar World.node[0].appl.middleware.DenService reception:count 2243
attr source DenmReceived
scalar World.node[0].nic.phy80211p busyTime 0.032517446808509
scalar World.node[0].nic.mac1609_4 ReceivedUnicastPackets 0
scalar World.node[0].nic.mac1609_4 ReceivedBroadcasts 3514
scalar World.node[0].nic.mac1609_4 SentPackets 274
scalar World.node[0].nic.mac1609_4 SentAcknowledgements 0
scalar World.node[0].nic.mac1609_4 RetriesExceeded 0
scalar World.node[0].nic.mac1609_4 SNIRLostPackets 12
scalar World.node[0].nic.mac1609_4 RXTXLostPackets 0
scalar World.node[0].nic.mac1609_4 TotalLostPackets 12
scalar World.node[0].nic.mac1609_4 DroppedPacketsInMac 0
scalar World.node[0].nic.mac1609_4 TooLittleTime 0
scalar World.node[0].nic.mac1609_4 TimesIntoBackoff 278
scalar World.node[0].nic.mac1609_4 SlotsBackoff 1166
scalar World.node[0].nic.mac1609_4 NumInternalContention 0
scalar World.node[0].nic.mac1609_4 totalBusyTime 0.820466
scalar World.node[0].nic.mac1609_4 retriesExceeded:count 0
attr source org_car2x_veins_modules_mac_sigRetriesExceeded
scalar World.node[0].nic.mac1609_4 sentAcks:count 0
attr source org_car2x_veins_modules_mac_sigSentAck
scalar World.node[0].nic.mac1609_4 sentPackets:count 274
attr source org_car2x_veins_modules_mac_sigSentPacket
scalar World.node[0].nic.mac1609_4 collisions:count 0
attr source org_car2x_veins_modules_mac_sigCollision
scalar World.node[0].nic.mac1609_4 channelBusy:timeavg 0.034913446808509
attr source org_car2x_veins_modules_mac_sigChannelBusy
scalar World.node[14].appl.middleware.DenService transmission:count 0
attr source DenmSent
scalar World.node[14].appl.middleware.DenService reception:count 3736
attr source DenmReceived
scalar World.node[14].nic.phy80211p busyTime 0.062657718120802
scalar World.node[14].nic.mac1609_4 ReceivedUnicastPackets 0
scalar World.node[14].nic.mac1609_4 ReceivedBroadcasts 4415
scalar World.node[14].nic.mac1609_4 SentPackets 247
scalar World.node[14].nic.mac1609_4 SentAcknowledgements 0
scalar World.node[14].nic.mac1609_4 RetriesExceeded 0
scalar World.node[14].nic.mac1609_4 SNIRLostPackets 14
scalar World.node[14].nic.mac1609_4 RXTXLostPackets 12
scalar World.node[14].nic.mac1609_4 TotalLostPackets 26
scalar World.node[14].nic.mac1609_4 DroppedPacketsInMac 0
scalar World.node[14].nic.mac1609_4 TooLittleTime 0
scalar World.node[14].nic.mac1609_4 TimesIntoBackoff 494
scalar World.node[14].nic.mac1609_4 SlotsBackoff 3694
scalar World.node[14].nic.mac1609_4 NumInternalContention 0
scalar World.node[14].nic.mac1609_4 totalBusyTime 0.986034680384
scalar World.node[14].nic.mac1609_4 retriesExceeded:count 0
attr source org_car2x_veins_modules_mac_sigRetriesExceeded
scalar World.node[14].nic.mac1609_4 sentAcks:count 0
attr source org_car2x_veins_modules_mac_sigSentAck
scalar World.node[14].nic.mac1609_4 sentPackets:count 247
attr source org_car2x_veins_modules_mac_sigSentPacket
scalar World.node[14].nic.mac1609_4 collisions:count 0
attr source org_car2x_veins_modules_mac_sigCollision
scalar World.node[14].nic.mac1609_4 channelBusy:timeavg 0.066176824186842
attr source org_car2x_veins_modules_mac_sigChannelBusy
scalar World.node[6].appl.middleware.DenService transmission:count 101
attr source DenmSent
scalar World.node[6].appl.middleware.DenService reception:count 4459
attr source DenmReceived
scalar World.node[6].nic.phy80211p busyTime 0.053271735537186
scalar World.node[6].nic.mac1609_4 ReceivedUnicastPackets 0
scalar World.node[6].nic.mac1609_4 ReceivedBroadcasts 6006
scalar World.node[6].nic.mac1609_4 SentPackets 354
scalar World.node[6].nic.mac1609_4 SentAcknowledgements 0
scalar World.node[6].nic.mac1609_4 RetriesExceeded 0
scalar World.node[6].nic.mac1609_4 SNIRLostPackets 34
scalar World.node[6].nic.mac1609_4 RXTXLostPackets 0
scalar World.node[6].nic.mac1609_4 TotalLostPackets 34
scalar World.node[6].nic.mac1609_4 DroppedPacketsInMac 0
scalar World.node[6].nic.mac1609_4 TooLittleTime 0
scalar World.node[6].nic.mac1609_4 TimesIntoBackoff 354
scalar World.node[6].nic.mac1609_4 SlotsBackoff 1678
scalar World.node[6].nic.mac1609_4 NumInternalContention 0
scalar World.node[6].nic.mac1609_4 totalBusyTime 1.35961
scalar World.node[6].nic.mac1609_4 retriesExceeded:count 0
attr source org_car2x_veins_modules_mac_sigRetriesExceeded
scalar World.node[6].nic.mac1609_4 sentAcks:count 0
attr source org_car2x_veins_modules_mac_sigSentAck
scalar World.node[6].nic.mac1609_4 sentPackets:count 354
attr source org_car2x_veins_modules_mac_sigSentPacket
scalar World.node[6].nic.mac1609_4 collisions:count 0
attr source org_car2x_veins_modules_mac_sigCollision
scalar World.node[6].nic.mac1609_4 channelBusy:timeavg 0.056182231404954
attr source org_car2x_veins_modules_mac_sigChannelBusy
scalar World.node[4].appl.middleware.DenService transmission:count 0
attr source DenmSent
scalar World.node[4].appl.middleware.DenService reception:count 6328
attr source DenmReceived
scalar World.node[4].nic.phy80211p busyTime 0.054622781456949
scalar World.node[4].nic.mac1609_4 ReceivedUnicastPackets 0
scalar World.node[4].nic.mac1609_4 ReceivedBroadcasts 7719
scalar World.node[4].nic.mac1609_4 SentPackets 415
scalar World.node[4].nic.mac1609_4 SentAcknowledgements 0
scalar World.node[4].nic.mac1609_4 RetriesExceeded 0
scalar World.node[4].nic.mac1609_4 SNIRLostPackets 34
scalar World.node[4].nic.mac1609_4 RXTXLostPackets 0
scalar World.node[4].nic.mac1609_4 TotalLostPackets 34
scalar World.node[4].nic.mac1609_4 DroppedPacketsInMac 0
scalar World.node[4].nic.mac1609_4 TooLittleTime 0
scalar World.node[4].nic.mac1609_4 TimesIntoBackoff 415
scalar World.node[4].nic.mac1609_4 SlotsBackoff 3234
scalar World.node[4].nic.mac1609_4 NumInternalContention 0
scalar World.node[4].nic.mac1609_4 totalBusyTime 1.737311
scalar World.node[4].nic.mac1609_4 retriesExceeded:count 0
attr source org_car2x_veins_modules_mac_sigRetriesExceeded
scalar World.node[4].nic.mac1609_4 sentAcks:count 0
attr source org_car2x_veins_modules_mac_sigSentAck
scalar World.node[4].nic.mac1609_4 sentPackets:count 415
attr source org_car2x_veins_modules_mac_sigSentPacket
scalar World.node[4].nic.mac1609_4 collisions:count 0
attr source org_car2x_veins_modules_mac_sigCollision
scalar World.node[4].nic.mac1609_4 channelBusy:timeavg 0.057526854304631
attr source org_car2x_veins_modules_mac_sigChannelBusy
scalar World.node[1].appl.middleware.DenService transmission:count 40
attr source DenmSent
scalar World.node[1].appl.middleware.DenService reception:count 15146
attr source DenmReceived
scalar World.node[1].nic.phy80211p busyTime 0.075613308128541
scalar World.node[1].nic.mac1609_4 ReceivedUnicastPackets 0
scalar World.node[1].nic.mac1609_4 ReceivedBroadcasts 18619
scalar World.node[1].nic.mac1609_4 SentPackets 763
scalar World.node[1].nic.mac1609_4 SentAcknowledgements 0
scalar World.node[1].nic.mac1609_4 RetriesExceeded 0
scalar World.node[1].nic.mac1609_4 SNIRLostPackets 339
scalar World.node[1].nic.mac1609_4 RXTXLostPackets 0
scalar World.node[1].nic.mac1609_4 TotalLostPackets 339
scalar World.node[1].nic.mac1609_4 DroppedPacketsInMac 0
scalar World.node[1].nic.mac1609_4 TooLittleTime 0
scalar World.node[1].nic.mac1609_4 TimesIntoBackoff 782
scalar World.node[1].nic.mac1609_4 SlotsBackoff 2919
scalar World.node[1].nic.mac1609_4 NumInternalContention 0
scalar World.node[1].nic.mac1609_4 totalBusyTime 4.110859
scalar World.node[1].nic.mac1609_4 retriesExceeded:count 0
attr source org_car2x_veins_modules_mac_sigRetriesExceeded
scalar World.node[1].nic.mac1609_4 sentAcks:count 0
attr source org_car2x_veins_modules_mac_sigSentAck
scalar World.node[1].nic.mac1609_4 sentPackets:count 763
attr source org_car2x_veins_modules_mac_sigSentPacket
scalar World.node[1].nic.mac1609_4 collisions:count 0
attr source org_car2x_veins_modules_mac_sigCollision
scalar World.node[1].nic.mac1609_4 channelBusy:timeavg 0.077710000000001
attr source org_car2x_veins_modules_mac_sigChannelBusy
scalar World.node[5].appl.middleware.DenService transmission:count 220
attr source DenmSent
scalar World.node[5].appl.middleware.DenService reception:count 16350
attr source DenmReceived
scalar World.node[5].nic.phy80211p busyTime 0.082379096267194
scalar World.node[5].nic.mac1609_4 ReceivedUnicastPackets 0
scalar World.node[5].nic.mac1609_4 ReceivedBroadcasts 19753
scalar World.node[5].nic.mac1609_4 SentPackets 772
scalar World.node[5].nic.mac1609_4 SentAcknowledgements 0
scalar World.node[5].nic.mac1609_4 RetriesExceeded 0
scalar World.node[5].nic.mac1609_4 SNIRLostPackets 148
scalar World.node[5].nic.mac1609_4 RXTXLostPackets 0
scalar World.node[5].nic.mac1609_4 TotalLostPackets 148
scalar World.node[5].nic.mac1609_4 DroppedPacketsInMac 0
scalar World.node[5].nic.mac1609_4 TooLittleTime 0
scalar World.node[5].nic.mac1609_4 TimesIntoBackoff 772
scalar World.node[5].nic.mac1609_4 SlotsBackoff 3160
scalar World.node[5].nic.mac1609_4 NumInternalContention 0
scalar World.node[5].nic.mac1609_4 totalBusyTime 4.336184981608
scalar World.node[5].nic.mac1609_4 retriesExceeded:count 0
attr source org_car2x_veins_modules_mac_sigRetriesExceeded
scalar World.node[5].nic.mac1609_4 sentAcks:count 0
attr source org_car2x_veins_modules_mac_sigSentAck
scalar World.node[5].nic.mac1609_4 sentPackets:count 772
attr source org_car2x_veins_modules_mac_sigSentPacket
scalar World.node[5].nic.mac1609_4 collisions:count 0
attr source org_car2x_veins_modules_mac_sigCollision
scalar World.node[5].nic.mac1609_4 channelBusy:timeavg 0.085190274687788
attr source org_car2x_veins_modules_mac_sigChannelBusy
scalar World.node[9].appl.middleware.DenService transmission:count 0
attr source DenmSent
scalar World.node[9].appl.middleware.DenService reception:count 18853
attr source DenmReceived
scalar World.node[9].nic.phy80211p busyTime 0.094818688524609
scalar World.node[9].nic.mac1609_4 ReceivedUnicastPackets 0
scalar World.node[9].nic.mac1609_4 ReceivedBroadcasts 21625
scalar World.node[9].nic.mac1609_4 SentPackets 800
scalar World.node[9].nic.mac1609_4 SentAcknowledgements 0
scalar World.node[9].nic.mac1609_4 RetriesExceeded 0
scalar World.node[9].nic.mac1609_4 SNIRLostPackets 420
scalar World.node[9].nic.mac1609_4 RXTXLostPackets 0
scalar World.node[9].nic.mac1609_4 TotalLostPackets 420
scalar World.node[9].nic.mac1609_4 DroppedPacketsInMac 0
scalar World.node[9].nic.mac1609_4 TooLittleTime 0
scalar World.node[9].nic.mac1609_4 TimesIntoBackoff 801
scalar World.node[9].nic.mac1609_4 SlotsBackoff 5936
scalar World.node[9].nic.mac1609_4 NumInternalContention 0
scalar World.node[9].nic.mac1609_4 totalBusyTime 4.749192
scalar World.node[9].nic.mac1609_4 retriesExceeded:count 0
attr source org_car2x_veins_modules_mac_sigRetriesExceeded
scalar World.node[9].nic.mac1609_4 sentAcks:count 0
attr source org_car2x_veins_modules_mac_sigSentAck
scalar World.node[9].nic.mac1609_4 sentPackets:count 800
attr source org_car2x_veins_modules_mac_sigSentPacket
scalar World.node[9].nic.mac1609_4 collisions:count 0
attr source org_car2x_veins_modules_mac_sigCollision
scalar World.node[9].nic.mac1609_4 channelBusy:timeavg 0.097319508196744
attr source org_car2x_veins_modules_mac_sigChannelBusy
scalar World.node[8].appl.middleware.DenService transmission:count 290
attr source DenmSent
scalar World.node[8].appl.middleware.DenService reception:count 18333
attr source DenmReceived
scalar World.node[8].nic.phy80211p busyTime 0.093894761904784
scalar World.node[8].nic.mac1609_4 ReceivedUnicastPackets 0
scalar World.node[8].nic.mac1609_4 ReceivedBroadcasts 22144
scalar World.node[8].nic.mac1609_4 SentPackets 819
scalar World.node[8].nic.mac1609_4 SentAcknowledgements 0
scalar World.node[8].nic.mac1609_4 RetriesExceeded 0
scalar World.node[8].nic.mac1609_4 SNIRLostPackets 368
scalar World.node[8].nic.mac1609_4 RXTXLostPackets 0
scalar World.node[8].nic.mac1609_4 TotalLostPackets 368
scalar World.node[8].nic.mac1609_4 DroppedPacketsInMac 0
scalar World.node[8].nic.mac1609_4 TooLittleTime 0
scalar World.node[8].nic.mac1609_4 TimesIntoBackoff 819
scalar World.node[8].nic.mac1609_4 SlotsBackoff 3531
scalar World.node[8].nic.mac1609_4 NumInternalContention 0
scalar World.node[8].nic.mac1609_4 totalBusyTime 4.848923596261
scalar World.node[8].nic.mac1609_4 retriesExceeded:count 0
attr source org_car2x_veins_modules_mac_sigRetriesExceeded
scalar World.node[8].nic.mac1609_4 sentAcks:count 0
attr source org_car2x_veins_modules_mac_sigSentAck
scalar World.node[8].nic.mac1609_4 sentPackets:count 819
attr source org_car2x_veins_modules_mac_sigSentPacket
scalar World.node[8].nic.mac1609_4 collisions:count 0
attr source org_car2x_veins_modules_mac_sigCollision
scalar World.node[8].nic.mac1609_4 channelBusy:timeavg 0.096208801513141
attr source org_car2x_veins_modules_mac_sigChannelBusy
scalar World.node[33].appl.middleware.DenService transmission:count 196
attr source DenmSent
scalar World.node[33].appl.middleware.DenService reception:count 16080
attr source DenmReceived
scalar World.node[33].nic.phy80211p busyTime 0.13305481481481
scalar World.node[33].nic.mac1609_4 ReceivedUnicastPackets 0
scalar World.node[33].nic.mac1609_4 ReceivedBroadcasts 18437
scalar World.node[33].nic.mac1609_4 SentPackets 494
scalar World.node[33].nic.mac1609_4 SentAcknowledgements 0
scalar World.node[33].nic.mac1609_4 RetriesExceeded 0
scalar World.node[33].nic.mac1609_4 SNIRLostPackets 454
scalar World.node[33].nic.mac1609_4 RXTXLostPackets 0
scalar World.node[33].nic.mac1609_4 TotalLostPackets 454
scalar World.node[33].nic.mac1609_4 DroppedPacketsInMac 0
scalar World.node[33].nic.mac1609_4 TooLittleTime 0
scalar World.node[33].nic.mac1609_4 TimesIntoBackoff 494
scalar World.node[33].nic.mac1609_4 SlotsBackoff 2467
scalar World.node[33].nic.mac1609_4 NumInternalContention 0
scalar World.node[33].nic.mac1609_4 totalBusyTime 4.00523
scalar World.node[33].nic.mac1609_4 retriesExceeded:count 0
attr source org_car2x_veins_modules_mac_sigRetriesExceeded
scalar World.node[33].nic.mac1609_4 sentAcks:count 0
attr source org_car2x_veins_modules_mac_sigSentAck
scalar World.node[33].nic.mac1609_4 sentPackets:count 494
attr source org_car2x_veins_modules_mac_sigSentPacket
scalar World.node[33].nic.mac1609_4 collisions:count 0
attr source org_car2x_veins_modules_mac_sigCollision
scalar World.node[33].nic.mac1609_4 channelBusy:timeavg 0.13485622895622
attr source org_car2x_veins_modules_mac_sigChannelBusy
scalar World.node[28].appl.middleware.DenService transmission:count 268
attr source DenmSent
scalar World.node[28].appl.middleware.DenService reception:count 18721
attr source DenmReceived
scalar World.node[28].nic.phy80211p busyTime 0.12338168021682
scalar World.node[28].nic.mac1609_4 ReceivedUnicastPackets 0
scalar World.node[28].nic.mac1609_4 ReceivedBroadcasts 21468
scalar World.node[28].nic.mac1609_4 SentPackets 614
scalar World.node[28].nic.mac1609_4 SentAcknowledgements 0
scalar World.node[28].nic.mac1609_4 RetriesExceeded 0
scalar World.node[28].nic.mac1609_4 SNIRLostPackets 296
scalar World.node[28].nic.mac1609_4 RXTXLostPackets 0
scalar World.node[28].nic.mac1609_4 TotalLostPackets 296
scalar World.node[28].nic.mac1609_4 DroppedPacketsInMac 0
scalar World.node[28].nic.mac1609_4 TooLittleTime 0
scalar World.node[28].nic.mac1609_4 TimesIntoBackoff 1228
scalar World.node[28].nic.mac1609_4 SlotsBackoff 5656
scalar World.node[28].nic.mac1609_4 NumInternalContention 0
scalar World.node[28].nic.mac1609_4 totalBusyTime 4.642697115333
scalar World.node[28].nic.mac1609_4 retriesExceeded:count 0
attr source org_car2x_veins_modules_mac_sigRetriesExceeded
scalar World.node[28].nic.mac1609_4 sentAcks:count 0
attr source org_car2x_veins_modules_mac_sigSentAck
scalar World.node[28].nic.mac1609_4 sentPackets:count 614
attr source org_car2x_veins_modules_mac_sigSentPacket
scalar World.node[28].nic.mac1609_4 collisions:count 0
attr source org_car2x_veins_modules_mac_sigCollision
scalar World.node[28].nic.mac1609_4 channelBusy:timeavg 0.12581835000905
attr source org_car2x_veins_modules_mac_sigChannelBusy
scalar World.node[2].appl.middleware.DenService transmission:count 529
attr source DenmSent
scalar World.node[2].appl.middleware.DenService reception:count 23062
attr source DenmReceived
scalar World.node[2].nic.phy80211p busyTime 0.092989333333384
scalar World.node[2].nic.mac1609_4 ReceivedUnicastPackets 0
scalar World.node[2].nic.mac1609_4 ReceivedBroadcasts 27336
scalar World.node[2].nic.mac1609_4 SentPackets 929
scalar World.node[2].nic.mac1609_4 SentAcknowledgements 0
scalar World.node[2].nic.mac1609_4 RetriesExceeded 0
scalar World.node[2].nic.mac1609_4 SNIRLostPackets 509
scalar World.node[2].nic.mac1609_4 RXTXLostPackets 0
scalar World.node[2].nic.mac1609_4 TotalLostPackets 509
scalar World.node[2].nic.mac1609_4 DroppedPacketsInMac 0
scalar World.node[2].nic.mac1609_4 TooLittleTime 0
scalar World.node[2].nic.mac1609_4 TimesIntoBackoff 946
scalar World.node[2].nic.mac1609_4 SlotsBackoff 3556
scalar World.node[2].nic.mac1609_4 NumInternalContention 0
scalar World.node[2].nic.mac1609_4 totalBusyTime 5.993729
scalar World.node[2].nic.mac1609_4 retriesExceeded:count 0
attr source org_car2x_veins_modules_mac_sigRetriesExceeded
scalar World.node[2].nic.mac1609_4 sentAcks:count 0
attr source org_car2x_veins_modules_mac_sigSentAck
scalar World.node[2].nic.mac1609_4 sentPackets:count 929
attr source org_car2x_veins_modules_mac_sigSentPacket
scalar World.node[2].nic.mac1609_4 collisions:count 0
attr source org_car2x_veins_modules_mac_sigCollision
scalar World.node[2].nic.mac1609_4 channelBusy:timeavg 0.095138555555608
attr source org_car2x_veins_modules_mac_sigChannelBusy
scalar World.node[3].appl.middleware.DenService transmission:count 350
attr source DenmSent
scalar World.node[3].appl.middleware.DenService reception:count 22726
attr source DenmReceived
scalar World.node[3].nic.phy80211p busyTime 0.090914104595927
scalar World.node[3].nic.mac1609_4 ReceivedUnicastPackets 0
scalar World.node[3].nic.mac1609_4 ReceivedBroadcasts 26896
scalar World.node[3].nic.mac1609_4 SentPackets 952
scalar World.node[3].nic.mac1609_4 SentAcknowledgements 0
scalar World.node[3].nic.mac1609_4 RetriesExceeded 0
scalar World.node[3].nic.mac1609_4 SNIRLostPackets 390
scalar World.node[3].nic.mac1609_4 RXTXLostPackets 0
scalar World.node[3].nic.mac1609_4 TotalLostPackets 390
scalar World.node[3].nic.mac1609_4 DroppedPacketsInMac 0
scalar World.node[3].nic.mac1609_4 TooLittleTime 0
scalar World.node[3].nic.mac1609_4 TimesIntoBackoff 952
scalar World.node[3].nic.mac1609_4 SlotsBackoff 3625
scalar World.node[3].nic.mac1609_4 NumInternalContention 0
scalar World.node[3].nic.mac1609_4 totalBusyTime 5.877864604563
scalar World.node[3].nic.mac1609_4 retriesExceeded:count 0
attr source org_car2x_veins_modules_mac_sigRetriesExceeded
scalar World.node[3].nic.mac1609_4 sentAcks:count 0
attr source org_car2x_veins_modules_mac_sigSentAck
scalar World.node[3].nic.mac1609_4 sentPackets:count 952
attr source org_car2x_veins_modules_mac_sigSentPacket
scalar World.node[3].nic.mac1609_4 collisions:count 0
attr source org_car2x_veins_modules_mac_sigCollision
scalar World.node[3].nic.mac1609_4 channelBusy:timeavg 0.093151578519272
attr source org_car2x_veins_modules_mac_sigChannelBusy
scalar World.node[22].appl.middleware.DenService transmission:count 110
attr source DenmSent
scalar World.node[22].appl.middleware.DenService reception:count 22719
attr source DenmReceived
scalar World.node[22].nic.phy80211p busyTime 0.12494022271721
scalar World.node[22].nic.mac1609_4 ReceivedUnicastPackets 0
scalar World.node[22].nic.mac1609_4 ReceivedBroadcasts 26288
scalar World.node[22].nic.mac1609_4 SentPackets 747
scalar World.node[22].nic.mac1609_4 SentAcknowledgements 0
scalar World.node[22].nic.mac1609_4 RetriesExceeded 0
scalar World.node[22].nic.mac1609_4 SNIRLostPackets 488
scalar World.node[22].nic.mac1609_4 RXTXLostPackets 0
scalar World.node[22].nic.mac1609_4 TotalLostPackets 488
scalar World.node[22].nic.mac1609_4 DroppedPacketsInMac 0
scalar World.node[22].nic.mac1609_4 TooLittleTime 0
scalar World.node[22].nic.mac1609_4 TimesIntoBackoff 747
scalar World.node[22].nic.mac1609_4 SlotsBackoff 3301
scalar World.node[22].nic.mac1609_4 NumInternalContention 0
scalar World.node[22].nic.mac1609_4 totalBusyTime 5.707963394962
scalar World.node[22].nic.mac1609_4 retriesExceeded:count 0
attr source org_car2x_veins_modules_mac_sigRetriesExceeded
scalar World.node[22].nic.mac1609_4 sentAcks:count 0
attr source org_car2x_veins_modules_mac_sigSentAck
scalar World.node[22].nic.mac1609_4 sentPackets:count 747
attr source org_car2x_veins_modules_mac_sigSentPacket
scalar World.node[22].nic.mac1609_4 collisions:count 0
attr source org_car2x_veins_modules_mac_sigCollision
scalar World.node[22].nic.mac1609_4 channelBusy:timeavg 0.12712613351815
attr source org_car2x_veins_modules_mac_sigChannelBusy
scalar World.node[25].appl.middleware.DenService transmission:count 50
attr source DenmSent
scalar World.node[25].appl.middleware.DenService reception:count 22497
attr source DenmReceived
scalar World.node[25].nic.phy80211p busyTime 0.12762351851858
scalar World.node[25].nic.mac1609_4 ReceivedUnicastPackets 0
scalar World.node[25].nic.mac1609_4 ReceivedBroadcasts 25809
scalar World.node[25].nic.mac1609_4 SentPackets 719
scalar World.node[25].nic.mac1609_4 SentAcknowledgements 0
scalar World.node[25].nic.mac1609_4 RetriesExceeded 0
scalar World.node[25].nic.mac1609_4 SNIRLostPackets 508
scalar World.node[25].nic.mac1609_4 RXTXLostPackets 0
scalar World.node[25].nic.mac1609_4 TotalLostPackets 508
scalar World.node[25].nic.mac1609_4 DroppedPacketsInMac 0
scalar World.node[25].nic.mac1609_4 TooLittleTime 0
scalar World.node[25].nic.mac1609_4 TimesIntoBackoff 719
scalar World.node[25].nic.mac1609_4 SlotsBackoff 3171
scalar World.node[25].nic.mac1609_4 NumInternalContention 0
scalar World.node[25].nic.mac1609_4 totalBusyTime 5.606023017755
scalar World.node[25].nic.mac1609_4 retriesExceeded:count 0
attr source org_car2x_veins_modules_mac_sigRetriesExceeded
scalar World.node[25].nic.mac1609_4 sentAcks:count 0
attr source org_car2x_veins_modules_mac_sigSentAck
scalar World.node[25].nic.mac1609_4 sentPackets:count 719
attr source org_car2x_veins_modules_mac_sigSentPacket
scalar World.node[25].nic.mac1609_4 collisions:count 0
attr source org_car2x_veins_modules_mac_sigCollision
scalar World.node[25].nic.mac1609_4 channelBusy:timeavg 0.12976905133698
attr source org_car2x_veins_modules_mac_sigChannelBusy
scalar World.node[12].appl.middleware.DenService transmission:count 210
attr source DenmSent
scalar World.node[12].appl.middleware.DenService reception:count 19809
attr source DenmReceived
scalar World.node[12].nic.phy80211p busyTime 0.08755299115047
scalar World.node[12].nic.mac1609_4 ReceivedUnicastPackets 0
scalar World.node[12].nic.mac1609_4 ReceivedBroadcasts 23552
scalar World.node[12].nic.mac1609_4 SentPackets 940
scalar World.node[12].nic.mac1609_4 SentAcknowledgements 0
scalar World.node[12].nic.mac1609_4 RetriesExceeded 0
scalar World.node[12].nic.mac1609_4 SNIRLostPackets 24
scalar World.node[12].nic.mac1609_4 RXTXLostPackets 0
scalar World.node[12].nic.mac1609_4 TotalLostPackets 24
scalar World.node[12].nic.mac1609_4 DroppedPacketsInMac 0
scalar World.node[12].nic.mac1609_4 TooLittleTime 0
scalar World.node[12].nic.mac1609_4 TimesIntoBackoff 940
scalar World.node[12].nic.mac1609_4 SlotsBackoff 4039
scalar World.node[12].nic.mac1609_4 NumInternalContention 0
scalar World.node[12].nic.mac1609_4 totalBusyTime 5.135916
scalar World.node[12].nic.mac1609_4 retriesExceeded:count 0
attr source org_car2x_veins_modules_mac_sigRetriesExceeded
scalar World.node[12].nic.mac1609_4 sentAcks:count 0
attr source org_car2x_veins_modules_mac_sigSentAck
scalar World.node[12].nic.mac1609_4 sentPackets:count 940
attr source org_car2x_veins_modules_mac_sigSentPacket
scalar World.node[12].nic.mac1609_4 collisions:count 0
attr source org_car2x_veins_modules_mac_sigCollision
scalar World.node[12].nic.mac1609_4 channelBusy:timeavg 0.090901168141624
attr source org_car2x_veins_modules_mac_sigChannelBusy
scalar World.node[23].appl.middleware.DenService transmission:count 0
attr source DenmSent
scalar World.node[23].appl.middleware.DenService reception:count 25834
attr source DenmReceived
scalar World.node[23].nic.phy80211p busyTime 0.12847966735975
scalar World.node[23].nic.mac1609_4 ReceivedUnicastPackets 0
scalar World.node[23].nic.mac1609_4 ReceivedBroadcasts 29089
scalar World.node[23].nic.mac1609_4 SentPackets 801
scalar World.node[23].nic.mac1609_4 SentAcknowledgements 0
scalar World.node[23].nic.mac1609_4 RetriesExceeded 0
scalar World.node[23].nic.mac1609_4 SNIRLostPackets 460
scalar World.node[23].nic.mac1609_4 RXTXLostPackets 0
scalar World.node[23].nic.mac1609_4 TotalLostPackets 460
scalar World.node[23].nic.mac1609_4 DroppedPacketsInMac 0
scalar World.node[23].nic.mac1609_4 TooLittleTime 0
scalar World.node[23].nic.mac1609_4 TimesIntoBackoff 1335
scalar World.node[23].nic.mac1609_4 SlotsBackoff 9998
scalar World.node[23].nic.mac1609_4 NumInternalContention 0
scalar World.node[23].nic.mac1609_4 totalBusyTime 6.289929
scalar World.node[23].nic.mac1609_4 retriesExceeded:count 0
attr source org_car2x_veins_modules_mac_sigRetriesExceeded
scalar World.node[23].nic.mac1609_4 sentAcks:count 0
attr source org_car2x_veins_modules_mac_sigSentAck
scalar World.node[23].nic.mac1609_4 sentPackets:count 801
attr source org_car2x_veins_modules_mac_sigSentPacket
scalar World.node[23].nic.mac1609_4 collisions:count 0
attr source org_car2x_veins_modules_mac_sigCollision
scalar World.node[23].nic.mac1609_4 channelBusy:timeavg 0.13076775467783
attr source org_car2x_veins_modules_mac_sigChannelBusy
scalar World.node[16].appl.middleware.DenService transmission:count 470
attr source DenmSent
scalar World.node[16].appl.middleware.DenService reception:count 26859
attr source DenmReceived
scalar World.node[16].nic.phy80211p busyTime 0.11532693520148
scalar World.node[16].nic.mac1609_4 ReceivedUnicastPackets 0
scalar World.node[16].nic.mac1609_4 ReceivedBroadcasts 30983
scalar World.node[16].nic.mac1609_4 SentPackets 951
scalar World.node[16].nic.mac1609_4 SentAcknowledgements 0
scalar World.node[16].nic.mac1609_4 RetriesExceeded 0
scalar World.node[16].nic.mac1609_4 SNIRLostPackets 472
scalar World.node[16].nic.mac1609_4 RXTXLostPackets 0
scalar World.node[16].nic.mac1609_4 TotalLostPackets 472
scalar World.node[16].nic.mac1609_4 DroppedPacketsInMac 0
scalar World.node[16].nic.mac1609_4 TooLittleTime 0
scalar World.node[16].nic.mac1609_4 TimesIntoBackoff 951
scalar World.node[16].nic.mac1609_4 SlotsBackoff 3898
scalar World.node[16].nic.mac1609_4 NumInternalContention 0
scalar World.node[16].nic.mac1609_4 totalBusyTime 6.71700017618
scalar World.node[16].nic.mac1609_4 retriesExceeded:count 0
attr source org_car2x_veins_modules_mac_sigRetriesExceeded
scalar World.node[16].nic.mac1609_4 sentAcks:count 0
attr source org_car2x_veins_modules_mac_sigSentAck
scalar World.node[16].nic.mac1609_4 sentPackets:count 951
attr source org_car2x_veins_modules_mac_sigSentPacket
scalar World.node[16].nic.mac1609_4 collisions:count 0
attr source org_car2x_veins_modules_mac_sigCollision
scalar World.node[16].nic.mac1609_4 channelBusy:timeavg 0.11763572988064
attr source org_car2x_veins_modules_mac_sigChannelBusy
scalar World.node[47].appl.middleware.DenService transmission:count 100
attr source DenmSent
scalar World.node[47].appl.middleware.DenService reception:count 17433
attr source DenmReceived
scalar World.node[47].nic.phy80211p busyTime 0.14771814946619
scalar World.node[47].nic.mac1609_4 ReceivedUnicastPackets 0
scalar World.node[47].nic.mac1609_4 ReceivedBroadcasts 19623
scalar World.node[47].nic.mac1609_4 SentPackets 468
scalar World.node[47].nic.mac1609_4 SentAcknowledgements 0
scalar World.node[47].nic.mac1609_4 RetriesExceeded 0
scalar World.node[47].nic.mac1609_4 SNIRLostPackets 289
scalar World.node[47].nic.mac1609_4 RXTXLostPackets 0
scalar World.node[47].nic.mac1609_4 TotalLostPackets 289
scalar World.node[47].nic.mac1609_4 DroppedPacketsInMac 0
scalar World.node[47].nic.mac1609_4 TooLittleTime 0
scalar World.node[47].nic.mac1609_4 TimesIntoBackoff 473
scalar World.node[47].nic.mac1609_4 SlotsBackoff 2363
scalar World.node[47].nic.mac1609_4 NumInternalContention 0
scalar World.node[47].nic.mac1609_4 totalBusyTime 4.214900766264
scalar World.node[47].nic.mac1609_4 retriesExceeded:count 0
attr source org_car2x_veins_modules_mac_sigRetriesExceeded
scalar World.node[47].nic.mac1609_4 sentAcks:count 0
attr source org_car2x_veins_modules_mac_sigSentAck
scalar World.node[47].nic.mac1609_4 sentPackets:count 468
attr source org_car2x_veins_modules_mac_sigSentPacket
scalar World.node[47].nic.mac1609_4 collisions:count 0
attr source org_car2x_veins_modules_mac_sigCollision
scalar World.node[47].nic.mac1609_4 channelBusy:timeavg 0.14999646855033
attr source org_car2x_veins_modules_mac_sigChannelBusy
scalar World.node[10].appl.middleware.DenService transmission:count 0
attr source DenmSent
scalar World.node[10].appl.middleware.DenService reception:count 6404
attr source DenmReceived
scalar World.node[10].nic.phy80211p busyTime 0.024329265488606
scalar World.node[10].nic.mac1609_4 ReceivedUnicastPackets 0
scalar World.node[10].nic.mac1609_4 ReceivedBroadcasts 7576
scalar World.node[10].nic.mac1609_4 SentPackets 1098
scalar World.node[10].nic.mac1609_4 SentAcknowledgements 0
scalar World.node[10].nic.mac1609_4 RetriesExceeded 0
scalar World.node[10].nic.mac1609_4 SNIRLostPackets 24
scalar World.node[10].nic.mac1609_4 RXTXLostPackets 0
scalar World.node[10].nic.mac1609_4 TotalLostPackets 24
scalar World.node[10].nic.mac1609_4 DroppedPacketsInMac 0
scalar World.node[10].nic.mac1609_4 TooLittleTime 0
scalar World.node[10].nic.mac1609_4 TimesIntoBackoff 1098
scalar World.node[10].nic.mac1609_4 SlotsBackoff 8208
scalar World.node[10].nic.mac1609_4 NumInternalContention 0
scalar World.node[10].nic.mac1609_4 totalBusyTime 1.847234
scalar World.node[10].nic.mac1609_4 retriesExceeded:count 0
attr source org_car2x_veins_modules_mac_sigRetriesExceeded
scalar World.node[10].nic.mac1609_4 sentAcks:count 0
attr source org_car2x_veins_modules_mac_sigSentAck
scalar World.node[10].nic.mac1609_4 sentPackets:count 1098
attr source org_car2x_veins_modules_mac_sigSentPacket
scalar World.node[10].nic.mac1609_4 collisions:count 0
attr source org_car2x_veins_modules_mac_sigCollision
scalar World.node[10].nic.mac1609_4 channelBusy:timeavg 0.027943626581528
attr source org_car2x_veins_modules_mac_sigChannelBusy
scalar World.node[11].appl.middleware.DenService transmission:count 170
attr source DenmSent
scalar World.node[11].appl.middleware.DenService reception:count 29547
attr source DenmReceived
scalar World.node[11].nic.phy80211p busyTime 0.10987062655456
scalar World.node[11].nic.mac1609_4 ReceivedUnicastPackets 0
scalar World.node[11].nic.mac1609_4 ReceivedBroadcasts 33586
scalar World.node[11].nic.mac1609_4 SentPackets 1084
scalar World.node[11].nic.mac1609_4 SentAcknowledgements 0
scalar World.node[11].nic.mac1609_4 RetriesExceeded 0
scalar World.node[11].nic.mac1609_4 SNIRLostPackets 630
scalar World.node[11].nic.mac1609_4 RXTXLostPackets 12
scalar World.node[11].nic.mac1609_4 TotalLostPackets 642
scalar World.node[11].nic.mac1609_4 DroppedPacketsInMac 0
scalar World.node[11].nic.mac1609_4 TooLittleTime 0
scalar World.node[11].nic.mac1609_4 TimesIntoBackoff 1229
scalar World.node[11].nic.mac1609_4 SlotsBackoff 7559
scalar World.node[11].nic.mac1609_4 NumInternalContention 0
scalar World.node[11].nic.mac1609_4 totalBusyTime 7.31366
scalar World.node[11].nic.mac1609_4 retriesExceeded:count 0
attr source org_car2x_veins_modules_mac_sigRetriesExceeded
scalar World.node[11].nic.mac1609_4 sentAcks:count 0
attr source org_car2x_veins_modules_mac_sigSentAck
scalar World.node[11].nic.mac1609_4 sentPackets:count 1084
attr source org_car2x_veins_modules_mac_sigSentPacket
scalar World.node[11].nic.mac1609_4 collisions:count 0
attr source org_car2x_veins_modules_mac_sigCollision
scalar World.node[11].nic.mac1609_4 channelBusy:timeavg 0.11233510987057
attr source org_car2x_veins_modules_mac_sigChannelBusy
scalar World.node[13].appl.middleware.DenService transmission:count 530
attr source DenmSent
scalar World.node[13].appl.middleware.DenService reception:count 5750
attr source DenmReceived
scalar World.node[13].nic.phy80211p busyTime 0.025412967238491
scalar World.node[13].nic.mac1609_4 ReceivedUnicastPackets 0
scalar World.node[13].nic.mac1609_4 ReceivedBroadcasts 7530
scalar World.node[13].nic.mac1609_4 SentPackets 918
scalar World.node[13].nic.mac1609_4 SentAcknowledgements 0
scalar World.node[13].nic.mac1609_4 RetriesExceeded 0
scalar World.node[13].nic.mac1609_4 SNIRLostPackets 34
scalar World.node[13].nic.mac1609_4 RXTXLostPackets 0
scalar World.node[13].nic.mac1609_4 TotalLostPackets 34
scalar World.node[13].nic.mac1609_4 DroppedPacketsInMac 0
scalar World.node[13].nic.mac1609_4 TooLittleTime 0
scalar World.node[13].nic.mac1609_4 TimesIntoBackoff 918
scalar World.node[13].nic.mac1609_4 SlotsBackoff 3311
scalar World.node[13].nic.mac1609_4 NumInternalContention 0
scalar World.node[13].nic.mac1609_4 totalBusyTime 1.787974
scalar World.node[13].nic.mac1609_4 retriesExceeded:count 0
attr source org_car2x_veins_modules_mac_sigRetriesExceeded
scalar World.node[13].nic.mac1609_4 sentAcks:count 0
attr source org_car2x_veins_modules_mac_sigSentAck
scalar World.node[13].nic.mac1609_4 sentPackets:count 918
attr source org_car2x_veins_modules_mac_sigSentPacket
scalar World.node[13].nic.mac1609_4 collisions:count 0
attr source org_car2x_veins_modules_mac_sigCollision
scalar World.node[13].nic.mac1609_4 channelBusy:timeavg 0.028332987063244
attr source org_car2x_veins_modules_mac_sigChannelBusy
scalar World.node[15].appl.middleware.DenService transmission:count 0
attr source DenmSent
scalar World.node[15].appl.middleware.DenService reception:count 31378
attr source DenmReceived
scalar World.node[15].nic.phy80211p busyTime 0.12313004473777
scalar World.node[15].nic.mac1609_4 ReceivedUnicastPackets 0
scalar World.node[15].nic.mac1609_4 ReceivedBroadcasts 35324
scalar World.node[15].nic.mac1609_4 SentPackets 1017
scalar World.node[15].nic.mac1609_4 SentAcknowledgements 0
scalar World.node[15].nic.mac1609_4 RetriesExceeded 0
scalar World.node[15].nic.mac1609_4 SNIRLostPackets 649
scalar World.node[15].nic.mac1609_4 RXTXLostPackets 30
scalar World.node[15].nic.mac1609_4 TotalLostPackets 679
scalar World.node[15].nic.mac1609_4 DroppedPacketsInMac 0
scalar World.node[15].nic.mac1609_4 TooLittleTime 0
scalar World.node[15].nic.mac1609_4 TimesIntoBackoff 1128
scalar World.node[15].nic.mac1609_4 SlotsBackoff 8357
scalar World.node[15].nic.mac1609_4 NumInternalContention 0
scalar World.node[15].nic.mac1609_4 totalBusyTime 7.679769
scalar World.node[15].nic.mac1609_4 retriesExceeded:count 0
attr source org_car2x_veins_modules_mac_sigRetriesExceeded
scalar World.node[15].nic.mac1609_4 sentAcks:count 0
attr source org_car2x_veins_modules_mac_sigSentAck
scalar World.node[15].nic.mac1609_4 sentPackets:count 1017
attr source org_car2x_veins_modules_mac_sigSentPacket
scalar World.node[15].nic.mac1609_4 collisions:count 0
attr source org_car2x_veins_modules_mac_sigCollision
scalar World.node[15].nic.mac1609_4 channelBusy:timeavg 0.1256800017525
attr source org_car2x_veins_modules_mac_sigChannelBusy
scalar World.node[17].appl.middleware.DenService transmission:count 0
attr source DenmSent
scalar World.node[17].appl.middleware.DenService reception:count 23961
attr source DenmReceived
scalar World.node[17].nic.phy80211p busyTime 0.096203860921232
scalar World.node[17].nic.mac1609_4 ReceivedUnicastPackets 0
scalar World.node[17].nic.mac1609_4 ReceivedBroadcasts 27104
scalar World.node[17].nic.mac1609_4 SentPackets 984
scalar World.node[17].nic.mac1609_4 SentAcknowledgements 0
scalar World.node[17].nic.mac1609_4 RetriesExceeded 0
scalar World.node[17].nic.mac1609_4 SNIRLostPackets 126
scalar World.node[17].nic.mac1609_4 RXTXLostPackets 12
scalar World.node[17].nic.mac1609_4 TotalLostPackets 138
scalar World.node[17].nic.mac1609_4 DroppedPacketsInMac 0
scalar World.node[17].nic.mac1609_4 TooLittleTime 0
scalar World.node[17].nic.mac1609_4 TimesIntoBackoff 984
scalar World.node[17].nic.mac1609_4 SlotsBackoff 6968
scalar World.node[17].nic.mac1609_4 NumInternalContention 0
scalar World.node[17].nic.mac1609_4 totalBusyTime 5.892840454745
scalar World.node[17].nic.mac1609_4 retriesExceeded:count 0
attr source org_car2x_veins_modules_mac_sigRetriesExceeded
scalar World.node[17].nic.mac1609_4 sentAcks:count 0
attr source org_car2x_veins_modules_mac_sigSentAck
scalar World.node[17].nic.mac1609_4 sentPackets:count 984
attr source org_car2x_veins_modules_mac_sigSentPacket
scalar World.node[17].nic.mac1609_4 collisions:count 0
attr source org_car2x_veins_modules_mac_sigCollision
scalar World.node[17].nic.mac1609_4 channelBusy:timeavg 0.099699976001425
attr source org_car2x_veins_modules_mac_sigChannelBusy
scalar World.node[18].appl.middleware.DenService transmission:count 0
attr source DenmSent
scalar World.node[18].appl.middleware.DenService reception:count 7265
attr source DenmReceived
scalar World.node[18].nic.phy80211p busyTime 0.030762952591302
scalar World.node[18].nic.mac1609_4 ReceivedUnicastPackets 0
scalar World.node[18].nic.mac1609_4 ReceivedBroadcasts 8474
scalar World.node[18].nic.mac1609_4 SentPackets 968
scalar World.node[18].nic.mac1609_4 SentAcknowledgements 0
scalar World.node[18].nic.mac1609_4 RetriesExceeded 0
scalar World.node[18].nic.mac1609_4 SNIRLostPackets 24
scalar World.node[18].nic.mac1609_4 RXTXLostPackets 0
scalar World.node[18].nic.mac1609_4 TotalLostPackets 24
scalar World.node[18].nic.mac1609_4 DroppedPacketsInMac 0
scalar World.node[18].nic.mac1609_4 TooLittleTime 0
scalar World.node[18].nic.mac1609_4 TimesIntoBackoff 971
scalar World.node[18].nic.mac1609_4 SlotsBackoff 7428
scalar World.node[18].nic.mac1609_4 NumInternalContention 0
scalar World.node[18].nic.mac1609_4 totalBusyTime 1.99712003116
scalar World.node[18].nic.mac1609_4 retriesExceeded:count 0
attr source org_car2x_veins_modules_mac_sigRetriesExceeded
scalar World.node[18].nic.mac1609_4 sentAcks:count 0
attr source org_car2x_veins_modules_mac_sigSentAck
scalar World.node[18].nic.mac1609_4 sentPackets:count 968
attr source org_car2x_veins_modules_mac_sigSentPacket
scalar World.node[18].nic.mac1609_4 collisions:count 0
attr source org_car2x_veins_modules_mac_sigCollision
scalar World.node[18].nic.mac1609_4 channelBusy:timeavg 0.034370445513808
attr source org_car2x_veins_modules_mac_sigChannelBusy
scalar World.node[19].appl.middleware.DenService transmission:count 0
attr source DenmSent
scalar World.node[19].appl.middleware.DenService reception:count 30245
attr source DenmReceived
scalar World.node[19].nic.phy80211p busyTime 0.12664535148668
scalar World.node[19].nic.mac1609_4 ReceivedUnicastPackets 0
scalar World.node[19].nic.mac1609_4 ReceivedBroadcasts 34056
scalar World.node[19].nic.mac1609_4 SentPackets 951
scalar World.node[19].nic.mac1609_4 SentAcknowledgements 0
scalar World.node[19].nic.mac1609_4 RetriesExceeded 0
scalar World.node[19].nic.mac1609_4 SNIRLostPackets 531
scalar World.node[19].nic.mac1609_4 RXTXLostPackets 0
scalar World.node[19].nic.mac1609_4 TotalLostPackets 531
scalar World.node[19].nic.mac1609_4 DroppedPacketsInMac 0
scalar World.node[19].nic.mac1609_4 TooLittleTime 0
scalar World.node[19].nic.mac1609_4 TimesIntoBackoff 951
scalar World.node[19].nic.mac1609_4 SlotsBackoff 6852
scalar World.node[19].nic.mac1609_4 NumInternalContention 0
scalar World.node[19].nic.mac1609_4 totalBusyTime 7.369125354332
scalar World.node[19].nic.mac1609_4 retriesExceeded:count 0
attr source org_car2x_veins_modules_mac_sigRetriesExceeded
scalar World.node[19].nic.mac1609_4 sentAcks:count 0
attr source org_car2x_veins_modules_mac_sigSentAck
scalar World.node[19].nic.mac1609_4 sentPackets:count 951
attr source org_car2x_veins_modules_mac_sigSentPacket
scalar World.node[19].nic.mac1609_4 collisions:count 0
attr source org_car2x_veins_modules_mac_sigCollision
scalar World.node[19].nic.mac1609_4 channelBusy:timeavg 0.12904352309025
attr source org_car2x_veins_modules_mac_sigChannelBusy
scalar World.node[20].appl.middleware.DenService transmission:count 460
attr source DenmSent
scalar World.node[20].appl.middleware.DenService reception:count 29513
attr source DenmReceived
scalar World.node[20].nic.phy80211p busyTime 0.12952201549942
scalar World.node[20].nic.mac1609_4 ReceivedUnicastPackets 0
scalar World.node[20].nic.mac1609_4 ReceivedBroadcasts 33985
scalar World.node[20].nic.mac1609_4 SentPackets 934
scalar World.node[20].nic.mac1609_4 SentAcknowledgements 0
scalar World.node[20].nic.mac1609_4 RetriesExceeded 0
scalar World.node[20].nic.mac1609_4 SNIRLostPackets 699
scalar World.node[20].nic.mac1609_4 RXTXLostPackets 0
scalar World.node[20].nic.mac1609_4 TotalLostPackets 699
scalar World.node[20].nic.mac1609_4 DroppedPacketsInMac 0
scalar World.node[20].nic.mac1609_4 TooLittleTime 0
scalar World.node[20].nic.mac1609_4 TimesIntoBackoff 954
scalar World.node[20].nic.mac1609_4 SlotsBackoff 4043
scalar World.node[20].nic.mac1609_4 NumInternalContention 0
scalar World.node[20].nic.mac1609_4 totalBusyTime 7.381935512734
scalar World.node[20].nic.mac1609_4 retriesExceeded:count 0
attr source org_car2x_veins_modules_mac_sigRetriesExceeded
scalar World.node[20].nic.mac1609_4 sentAcks:count 0
attr source org_car2x_veins_modules_mac_sigSentAck
scalar World.node[20].nic.mac1609_4 sentPackets:count 934
attr source org_car2x_veins_modules_mac_sigSentPacket
scalar World.node[20].nic.mac1609_4 collisions:count 0
attr source org_car2x_veins_modules_mac_sigCollision
scalar World.node[20].nic.mac1609_4 channelBusy:timeavg 0.13157185070446
attr source org_car2x_veins_modules_mac_sigChannelBusy
scalar World.node[21].appl.middleware.DenService transmission:count 441
attr source DenmSent
scalar World.node[21].appl.middleware.DenService reception:count 27933
attr source DenmReceived
scalar World.node[21].nic.phy80211p busyTime 0.12692288314203
scalar World.node[21].nic.mac1609_4 ReceivedUnicastPackets 0
scalar World.node[21].nic.mac1609_4 ReceivedBroadcasts 32207
scalar World.node[21].nic.mac1609_4 SentPackets 901
scalar World.node[21].nic.mac1609_4 SentAcknowledgements 0
scalar World.node[21].nic.mac1609_4 RetriesExceeded 0
scalar World.node[21].nic.mac1609_4 SNIRLostPackets 563
scalar World.node[21].nic.mac1609_4 RXTXLostPackets 0
scalar World.node[21].nic.mac1609_4 TotalLostPackets 563
scalar World.node[21].nic.mac1609_4 DroppedPacketsInMac 0
scalar World.node[21].nic.mac1609_4 TooLittleTime 0
scalar World.node[21].nic.mac1609_4 TimesIntoBackoff 901
scalar World.node[21].nic.mac1609_4 SlotsBackoff 3844
scalar World.node[21].nic.mac1609_4 NumInternalContention 0
scalar World.node[21].nic.mac1609_4 totalBusyTime 6.979550316719
scalar World.node[21].nic.mac1609_4 retriesExceeded:count 0
attr source org_car2x_veins_modules_mac_sigRetriesExceeded
scalar World.node[21].nic.mac1609_4 sentAcks:count 0
attr source org_car2x_veins_modules_mac_sigSentAck
scalar World.node[21].nic.mac1609_4 sentPackets:count 901
attr source org_car2x_veins_modules_mac_sigSentPacket
scalar World.node[21].nic.mac1609_4 collisions:count 0
attr source org_car2x_veins_modules_mac_sigCollision
scalar World.node[21].nic.mac1609_4 channelBusy:timeavg 0.12899834362267
attr source org_car2x_veins_modules_mac_sigChannelBusy
scalar World.node[24].appl.middleware.DenService transmission:count 420
attr source DenmSent
scalar World.node[24].appl.middleware.DenService reception:count 28218
attr source DenmReceived
scalar World.node[24].nic.phy80211p busyTime 0.1345198541692
scalar World.node[24].nic.mac1609_4 ReceivedUnicastPackets 0
scalar World.node[24].nic.mac1609_4 ReceivedBroadcasts 32790
scalar World.node[24].nic.mac1609_4 SentPackets 868
scalar World.node[24].nic.mac1609_4 SentAcknowledgements 0
scalar World.node[24].nic.mac1609_4 RetriesExceeded 0
scalar World.node[24].nic.mac1609_4 SNIRLostPackets 676
scalar World.node[24].nic.mac1609_4 RXTXLostPackets 0
scalar World.node[24].nic.mac1609_4 TotalLostPackets 676
scalar World.node[24].nic.mac1609_4 DroppedPacketsInMac 0
scalar World.node[24].nic.mac1609_4 TooLittleTime 0
scalar World.node[24].nic.mac1609_4 TimesIntoBackoff 873
scalar World.node[24].nic.mac1609_4 SlotsBackoff 3819
scalar World.node[24].nic.mac1609_4 NumInternalContention 0
scalar World.node[24].nic.mac1609_4 totalBusyTime 7.113188
scalar World.node[24].nic.mac1609_4 retriesExceeded:count 0
attr source org_car2x_veins_modules_mac_sigRetriesExceeded
scalar World.node[24].nic.mac1609_4 sentAcks:count 0
attr source org_car2x_veins_modules_mac_sigSentAck
scalar World.node[24].nic.mac1609_4 sentPackets:count 868
attr source org_car2x_veins_modules_mac_sigSentPacket
scalar World.node[24].nic.mac1609_4 collisions:count 0
attr source org_car2x_veins_modules_mac_sigCollision
scalar World.node[24].nic.mac1609_4 channelBusy:timeavg 0.13651449061613
attr source org_car2x_veins_modules_mac_sigChannelBusy
scalar World.node[26].appl.middleware.DenService transmission:count 0
attr source DenmSent
scalar World.node[26].appl.middleware.DenService reception:count 26586
attr source DenmReceived
scalar World.node[26].nic.phy80211p busyTime 0.12578440136219
scalar World.node[26].nic.mac1609_4 ReceivedUnicastPackets 0
scalar World.node[26].nic.mac1609_4 ReceivedBroadcasts 29716
scalar World.node[26].nic.mac1609_4 SentPackets 835
scalar World.node[26].nic.mac1609_4 SentAcknowledgements 0
scalar World.node[26].nic.mac1609_4 RetriesExceeded 0
scalar World.node[26].nic.mac1609_4 SNIRLostPackets 498
scalar World.node[26].nic.mac1609_4 RXTXLostPackets 0
scalar World.node[26].nic.mac1609_4 TotalLostPackets 498
scalar World.node[26].nic.mac1609_4 DroppedPacketsInMac 0
scalar World.node[26].nic.mac1609_4 TooLittleTime 0
scalar World.node[26].nic.mac1609_4 TimesIntoBackoff 835
scalar World.node[26].nic.mac1609_4 SlotsBackoff 6034
scalar World.node[26].nic.mac1609_4 NumInternalContention 0
scalar World.node[26].nic.mac1609_4 totalBusyTime 6.421067
scalar World.node[26].nic.mac1609_4 retriesExceeded:count 0
attr source org_car2x_veins_modules_mac_sigRetriesExceeded
scalar World.node[26].nic.mac1609_4 sentAcks:count 0
attr source org_car2x_veins_modules_mac_sigSentAck
scalar World.node[26].nic.mac1609_4 sentPackets:count 835
attr source org_car2x_veins_modules_mac_sigSentPacket
scalar World.node[26].nic.mac1609_4 collisions:count 0
attr source org_car2x_veins_modules_mac_sigCollision
scalar World.node[26].nic.mac1609_4 channelBusy:timeavg 0.12815033807136
attr source org_car2x_veins_modules_mac_sigChannelBusy
scalar World.node[27].appl.middleware.DenService transmission:count 390
attr source DenmSent
scalar World.node[27].appl.middleware.DenService reception:count 27585
attr source DenmReceived
scalar World.node[27].nic.phy80211p busyTime 0.13797084740377
scalar World.node[27].nic.mac1609_4 ReceivedUnicastPackets 0
scalar World.node[27].nic.mac1609_4 ReceivedBroadcasts 31705
scalar World.node[27].nic.mac1609_4 SentPackets 818
scalar World.node[27].nic.mac1609_4 SentAcknowledgements 0
scalar World.node[27].nic.mac1609_4 RetriesExceeded 0
scalar World.node[27].nic.mac1609_4 SNIRLostPackets 658
scalar World.node[27].nic.mac1609_4 RXTXLostPackets 0
scalar World.node[27].nic.mac1609_4 TotalLostPackets 658
scalar World.node[27].nic.mac1609_4 DroppedPacketsInMac 0
scalar World.node[27].nic.mac1609_4 TooLittleTime 0
scalar World.node[27].nic.mac1609_4 TimesIntoBackoff 818
scalar World.node[27].nic.mac1609_4 SlotsBackoff 3664
scalar World.node[27].nic.mac1609_4 NumInternalContention 0
scalar World.node[27].nic.mac1609_4 totalBusyTime 6.870082
scalar World.node[27].nic.mac1609_4 retriesExceeded:count 0
attr source org_car2x_veins_modules_mac_sigRetriesExceeded
scalar World.node[27].nic.mac1609_4 sentAcks:count 0
attr source org_car2x_veins_modules_mac_sigSentAck
scalar World.node[27].nic.mac1609_4 sentPackets:count 818
attr source org_car2x_veins_modules_mac_sigSentPacket
scalar World.node[27].nic.mac1609_4 collisions:count 0
attr source org_car2x_veins_modules_mac_sigCollision
scalar World.node[27].nic.mac1609_4 channelBusy:timeavg 0.1399038598754
attr source org_car2x_veins_modules_mac_sigChannelBusy
scalar World.node[29].appl.middleware.DenService transmission:count 370
attr source DenmSent
scalar World.node[29].appl.middleware.DenService reception:count 27018
attr source DenmReceived
scalar World.node[29].nic.phy80211p busyTime 0.13963785659576
scalar World.node[29].nic.mac1609_4 ReceivedUnicastPackets 0
scalar World.node[29].nic.mac1609_4 ReceivedBroadcasts 30791
scalar World.node[29].nic.mac1609_4 SentPackets 784
scalar World.node[29].nic.mac1609_4 SentAcknowledgements 0
scalar World.node[29].nic.mac1609_4 RetriesExceeded 0
scalar World.node[29].nic.mac1609_4 SNIRLostPackets 636
scalar World.node[29].nic.mac1609_4 RXTXLostPackets 0
scalar World.node[29].nic.mac1609_4 TotalLostPackets 636
scalar World.node[29].nic.mac1609_4 DroppedPacketsInMac 0
scalar World.node[29].nic.mac1609_4 TooLittleTime 0
scalar World.node[29].nic.mac1609_4 TimesIntoBackoff 790
scalar World.node[29].nic.mac1609_4 SlotsBackoff 3541
scalar World.node[29].nic.mac1609_4 NumInternalContention 0
scalar World.node[29].nic.mac1609_4 totalBusyTime 6.666329940707
scalar World.node[29].nic.mac1609_4 retriesExceeded:count 0
attr source org_car2x_veins_modules_mac_sigRetriesExceeded
scalar World.node[29].nic.mac1609_4 sentAcks:count 0
attr source org_car2x_veins_modules_mac_sigSentAck
scalar World.node[29].nic.mac1609_4 sentPackets:count 784
attr source org_car2x_veins_modules_mac_sigSentPacket
scalar World.node[29].nic.mac1609_4 collisions:count 0
attr source org_car2x_veins_modules_mac_sigCollision
scalar World.node[29].nic.mac1609_4 channelBusy:timeavg 0.14151843311027
attr source org_car2x_veins_modules_mac_sigChannelBusy
scalar World.node[30].appl.middleware.DenService transmission:count 90
attr source DenmSent
scalar World.node[30].appl.middleware.DenService reception:count 26979
attr source DenmReceived
scalar World.node[30].nic.phy80211p busyTime 0.14036067027428
scalar World.node[30].nic.mac1609_4 ReceivedUnicastPackets 0
scalar World.node[30].nic.mac1609_4 ReceivedBroadcasts 30320
scalar World.node[30].nic.mac1609_4 SentPackets 768
scalar World.node[30].nic.mac1609_4 SentAcknowledgements 0
scalar World.node[30].nic.mac1609_4 RetriesExceeded 0
scalar World.node[30].nic.mac1609_4 SNIRLostPackets 644
scalar World.node[30].nic.mac1609_4 RXTXLostPackets 0
scalar World.node[30].nic.mac1609_4 TotalLostPackets 644
scalar World.node[30].nic.mac1609_4 DroppedPacketsInMac 0
scalar World.node[30].nic.mac1609_4 TooLittleTime 0
scalar World.node[30].nic.mac1609_4 TimesIntoBackoff 768
scalar World.node[30].nic.mac1609_4 SlotsBackoff 5179
scalar World.node[30].nic.mac1609_4 NumInternalContention 0
scalar World.node[30].nic.mac1609_4 totalBusyTime 6.563784
scalar World.node[30].nic.mac1609_4 retriesExceeded:count 0
attr source org_car2x_veins_modules_mac_sigRetriesExceeded
scalar World.node[30].nic.mac1609_4 sentAcks:count 0
attr source org_car2x_veins_modules_mac_sigSentAck
scalar World.node[30].nic.mac1609_4 sentPackets:count 768
attr source org_car2x_veins_modules_mac_sigSentPacket
scalar World.node[30].nic.mac1609_4 collisions:count 0
attr source org_car2x_veins_modules_mac_sigCollision
scalar World.node[30].nic.mac1609_4 channelBusy:timeavg 0.14236371822737
attr source org_car2x_veins_modules_mac_sigChannelBusy
scalar World.node[31].appl.middleware.DenService transmission:count 20
attr source DenmSent
scalar World.node[31].appl.middleware.DenService reception:count 24227
attr source DenmReceived
scalar World.node[31].nic.phy80211p busyTime 0.13009520580333
scalar World.node[31].nic.mac1609_4 ReceivedUnicastPackets 0
scalar World.node[31].nic.mac1609_4 ReceivedBroadcasts 27808
scalar World.node[31].nic.mac1609_4 SentPackets 751
scalar World.node[31].nic.mac1609_4 SentAcknowledgements 0
scalar World.node[31].nic.mac1609_4 RetriesExceeded 0
scalar World.node[31].nic.mac1609_4 SNIRLostPackets 253
scalar World.node[31].nic.mac1609_4 RXTXLostPackets 0
scalar World.node[31].nic.mac1609_4 TotalLostPackets 253
scalar World.node[31].nic.mac1609_4 DroppedPacketsInMac 0
scalar World.node[31].nic.mac1609_4 TooLittleTime 0
scalar World.node[31].nic.mac1609_4 TimesIntoBackoff 751
scalar World.node[31].nic.mac1609_4 SlotsBackoff 3238
scalar World.node[31].nic.mac1609_4 NumInternalContention 0
scalar World.node[31].nic.mac1609_4 totalBusyTime 5.995183
scalar World.node[31].nic.mac1609_4 retriesExceeded:count 0
attr source org_car2x_veins_modules_mac_sigRetriesExceeded
scalar World.node[31].nic.mac1609_4 sentAcks:count 0
attr source org_car2x_veins_modules_mac_sigSentAck
scalar World.node[31].nic.mac1609_4 sentPackets:count 751
attr source org_car2x_veins_modules_mac_sigSentPacket
scalar World.node[31].nic.mac1609_4 collisions:count 0
attr source org_car2x_veins_modules_mac_sigCollision
scalar World.node[31].nic.mac1609_4 channelBusy:timeavg 0.13291398255868
attr source org_car2x_veins_modules_mac_sigChannelBusy
scalar World.node[32].appl.middleware.DenService transmission:count 0
attr source DenmSent
scalar World.node[32].appl.middleware.DenService reception:count 26137
attr source DenmReceived
scalar World.node[32].nic.phy80211p busyTime 0.14112740366684
scalar World.node[32].nic.mac1609_4 ReceivedUnicastPackets 0
scalar World.node[32].nic.mac1609_4 ReceivedBroadcasts 29244
scalar World.node[32].nic.mac1609_4 SentPackets 734
scalar World.node[32].nic.mac1609_4 SentAcknowledgements 0
scalar World.node[32].nic.mac1609_4 RetriesExceeded 0
scalar World.node[32].nic.mac1609_4 SNIRLostPackets 545
scalar World.node[32].nic.mac1609_4 RXTXLostPackets 0
scalar World.node[32].nic.mac1609_4 TotalLostPackets 545
scalar World.node[32].nic.mac1609_4 DroppedPacketsInMac 0
scalar World.node[32].nic.mac1609_4 TooLittleTime 0
scalar World.node[32].nic.mac1609_4 TimesIntoBackoff 734
scalar World.node[32].nic.mac1609_4 SlotsBackoff 5580
scalar World.node[32].nic.mac1609_4 NumInternalContention 0
scalar World.node[32].nic.mac1609_4 totalBusyTime 6.317366312555
scalar World.node[32].nic.mac1609_4 retriesExceeded:count 0
attr source org_car2x_veins_modules_mac_sigRetriesExceeded
scalar World.node[32].nic.mac1609_4 sentAcks:count 0
attr source org_car2x_veins_modules_mac_sigSentAck
scalar World.node[32].nic.mac1609_4 sentPackets:count 734
attr source org_car2x_veins_modules_mac_sigSentPacket
scalar World.node[32].nic.mac1609_4 collisions:count 0
attr source org_car2x_veins_modules_mac_sigCollision
scalar World.node[32].nic.mac1609_4 channelBusy:timeavg 0.14323230704452
attr source org_car2x_veins_modules_mac_sigChannelBusy
scalar World.node[34].appl.middleware.DenService transmission:count 70
attr source DenmSent
scalar World.node[34].appl.middleware.DenService reception:count 1795
attr source DenmReceived
scalar World.node[34].nic.phy80211p busyTime 0.012675897667782
scalar World.node[34].nic.mac1609_4 ReceivedUnicastPackets 0
scalar World.node[34].nic.mac1609_4 ReceivedBroadcasts 2489
scalar World.node[34].nic.mac1609_4 SentPackets 700
scalar World.node[34].nic.mac1609_4 SentAcknowledgements 0
scalar World.node[34].nic.mac1609_4 RetriesExceeded 0
scalar World.node[34].nic.mac1609_4 SNIRLostPackets 0
scalar World.node[34].nic.mac1609_4 RXTXLostPackets 0
scalar World.node[34].nic.mac1609_4 TotalLostPackets 0
scalar World.node[34].nic.mac1609_4 DroppedPacketsInMac 0
scalar World.node[34].nic.mac1609_4 TooLittleTime 0
scalar World.node[34].nic.mac1609_4 TimesIntoBackoff 700
scalar World.node[34].nic.mac1609_4 SlotsBackoff 3268
scalar World.node[34].nic.mac1609_4 NumInternalContention 0
scalar World.node[34].nic.mac1609_4 totalBusyTime 0.678324
scalar World.node[34].nic.mac1609_4 retriesExceeded:count 0
attr source org_car2x_veins_modules_mac_sigRetriesExceeded
scalar World.node[34].nic.mac1609_4 sentAcks:count 0
attr source org_car2x_veins_modules_mac_sigSentAck
scalar World.node[34].nic.mac1609_4 sentPackets:count 700
attr source org_car2x_veins_modules_mac_sigSentPacket
scalar World.node[34].nic.mac1609_4 collisions:count 0
attr source org_car2x_veins_modules_mac_sigCollision
scalar World.node[34].nic.mac1609_4 channelBusy:timeavg 0.016110014107561
attr source org_car2x_veins_modules_mac_sigChannelBusy
scalar World.node[35].appl.middleware.DenService transmission:count 290
attr source DenmSent
scalar World.node[35].appl.middleware.DenService reception:count 24984
attr source DenmReceived
scalar World.node[35].nic.phy80211p busyTime 0.14667519902401
scalar World.node[35].nic.mac1609_4 ReceivedUnicastPackets 0
scalar World.node[35].nic.mac1609_4 ReceivedBroadcasts 28333
scalar World.node[35].nic.mac1609_4 SentPackets 684
scalar World.node[35].nic.mac1609_4 SentAcknowledgements 0
scalar World.node[35].nic.mac1609_4 RetriesExceeded 0
scalar World.node[35].nic.mac1609_4 SNIRLostPackets 503
scalar World.node[35].nic.mac1609_4 RXTXLostPackets 0
scalar World.node[35].nic.mac1609_4 TotalLostPackets 503
scalar World.node[35].nic.mac1609_4 DroppedPacketsInMac 0
scalar World.node[35].nic.mac1609_4 TooLittleTime 0
scalar World.node[35].nic.mac1609_4 TimesIntoBackoff 1197
scalar World.node[35].nic.mac1609_4 SlotsBackoff 5131
scalar World.node[35].nic.mac1609_4 NumInternalContention 0
scalar World.node[35].nic.mac1609_4 totalBusyTime 6.099789525046
scalar World.node[35].nic.mac1609_4 retriesExceeded:count 0
attr source org_car2x_veins_modules_mac_sigRetriesExceeded
scalar World.node[35].nic.mac1609_4 sentAcks:count 0
attr source org_car2x_veins_modules_mac_sigSentAck
scalar World.node[35].nic.mac1609_4 sentPackets:count 684
attr source org_car2x_veins_modules_mac_sigSentPacket
scalar World.node[35].nic.mac1609_4 collisions:count 0
attr source org_car2x_veins_modules_mac_sigCollision
scalar World.node[35].nic.mac1609_4 channelBusy:timeavg 0.14839266067338
attr source org_car2x_veins_modules_mac_sigChannelBusy
scalar World.node[36].appl.middleware.DenService transmission:count 150
attr source DenmSent
scalar World.node[36].appl.middleware.DenService reception:count 24444
attr source DenmReceived
scalar World.node[36].nic.phy80211p busyTime 0.1480356826991
scalar World.node[36].nic.mac1609_4 ReceivedUnicastPackets 0
scalar World.node[36].nic.mac1609_4 ReceivedBroadcasts 27896
scalar World.node[36].nic.mac1609_4 SentPackets 668
scalar World.node[36].nic.mac1609_4 SentAcknowledgements 0
scalar World.node[36].nic.mac1609_4 RetriesExceeded 0
scalar World.node[36].nic.mac1609_4 SNIRLostPackets 514
scalar World.node[36].nic.mac1609_4 RXTXLostPackets 0
scalar World.node[36].nic.mac1609_4 TotalLostPackets 514
scalar World.node[36].nic.mac1609_4 DroppedPacketsInMac 0
scalar World.node[36].nic.mac1609_4 TooLittleTime 0
scalar World.node[36].nic.mac1609_4 TimesIntoBackoff 668
scalar World.node[36].nic.mac1609_4 SlotsBackoff 3080
scalar World.node[36].nic.mac1609_4 NumInternalContention 0
scalar World.node[36].nic.mac1609_4 totalBusyTime 6.004644302687
scalar World.node[36].nic.mac1609_4 retriesExceeded:count 0
attr source org_car2x_veins_modules_mac_sigRetriesExceeded
scalar World.node[36].nic.mac1609_4 sentAcks:count 0
attr source org_car2x_veins_modules_mac_sigSentAck
scalar World.node[36].nic.mac1609_4 sentPackets:count 668
attr source org_car2x_veins_modules_mac_sigSentPacket
scalar World.node[36].nic.mac1609_4 collisions:count 0
attr source org_car2x_veins_modules_mac_sigCollision
scalar World.node[36].nic.mac1609_4 channelBusy:timeavg 0.14972033705349
attr source org_car2x_veins_modules_mac_sigChannelBusy
scalar World.node[37].appl.middleware.DenService transmission:count 290
attr source DenmSent
scalar World.node[37].appl.middleware.DenService reception:count 24087
attr source DenmReceived
scalar World.node[37].nic.phy80211p busyTime 0.14925605821569
scalar World.node[37].nic.mac1609_4 ReceivedUnicastPackets 0
scalar World.node[37].nic.mac1609_4 ReceivedBroadcasts 27289
scalar World.node[37].nic.mac1609_4 SentPackets 651
scalar World.node[37].nic.mac1609_4 SentAcknowledgements 0
scalar World.node[37].nic.mac1609_4 RetriesExceeded 0
scalar World.node[37].nic.mac1609_4 SNIRLostPackets 636
scalar World.node[37].nic.mac1609_4 RXTXLostPackets 0
scalar World.node[37].nic.mac1609_4 TotalLostPackets 636
scalar World.node[37].nic.mac1609_4 DroppedPacketsInMac 0
scalar World.node[37].nic.mac1609_4 TooLittleTime 0
scalar World.node[37].nic.mac1609_4 TimesIntoBackoff 652
scalar World.node[37].nic.mac1609_4 SlotsBackoff 2874
scalar World.node[37].nic.mac1609_4 NumInternalContention 0
scalar World.node[37].nic.mac1609_4 totalBusyTime 5.900523
scalar World.node[37].nic.mac1609_4 retriesExceeded:count 0
attr source org_car2x_veins_modules_mac_sigRetriesExceeded
scalar World.node[37].nic.mac1609_4 sentAcks:count 0
attr source org_car2x_veins_modules_mac_sigSentAck
scalar World.node[37].nic.mac1609_4 sentPackets:count 651
attr source org_car2x_veins_modules_mac_sigSentPacket
scalar World.node[37].nic.mac1609_4 collisions:count 0
attr source org_car2x_veins_modules_mac_sigCollision
scalar World.node[37].nic.mac1609_4 channelBusy:timeavg 0.15088638170833
attr source org_car2x_veins_modules_mac_sigChannelBusy
scalar World.node[38].appl.middleware.DenService transmission:count 0
attr source DenmSent
scalar World.node[38].appl.middleware.DenService reception:count 20509
attr source DenmReceived
scalar World.node[38].nic.phy80211p busyTime 0.12638475235343
scalar World.node[38].nic.mac1609_4 ReceivedUnicastPackets 0
scalar World.node[38].nic.mac1609_4 ReceivedBroadcasts 22895
scalar World.node[38].nic.mac1609_4 SentPackets 635
scalar World.node[38].nic.mac1609_4 SentAcknowledgements 0
scalar World.node[38].nic.mac1609_4 RetriesExceeded 0
scalar World.node[38].nic.mac1609_4 SNIRLostPackets 163
scalar World.node[38].nic.mac1609_4 RXTXLostPackets 0
scalar World.node[38].nic.mac1609_4 TotalLostPackets 163
scalar World.node[38].nic.mac1609_4 DroppedPacketsInMac 0
scalar World.node[38].nic.mac1609_4 TooLittleTime 0
scalar World.node[38].nic.mac1609_4 TimesIntoBackoff 635
scalar World.node[38].nic.mac1609_4 SlotsBackoff 4839
scalar World.node[38].nic.mac1609_4 NumInternalContention 0
scalar World.node[38].nic.mac1609_4 totalBusyTime 4.932031252134
scalar World.node[38].nic.mac1609_4 retriesExceeded:count 0
attr source org_car2x_veins_modules_mac_sigRetriesExceeded
scalar World.node[38].nic.mac1609_4 sentAcks:count 0
attr source org_car2x_veins_modules_mac_sigSentAck
scalar World.node[38].nic.mac1609_4 sentPackets:count 635
attr source org_car2x_veins_modules_mac_sigSentPacket
scalar World.node[38].nic.mac1609_4 collisions:count 0
attr source org_car2x_veins_modules_mac_sigCollision
scalar World.node[38].nic.mac1609_4 channelBusy:timeavg 0.12943015350557
attr source org_car2x_veins_modules_mac_sigChannelBusy
scalar World.node[39].appl.middleware.DenService transmission:count 0
attr source DenmSent
scalar World.node[39].appl.middleware.DenService reception:count 21372
attr source DenmReceived
scalar World.node[39].nic.phy80211p busyTime 0.13474380371026
scalar World.node[39].nic.mac1609_4 ReceivedUnicastPackets 0
scalar World.node[39].nic.mac1609_4 ReceivedBroadcasts 23791
scalar World.node[39].nic.mac1609_4 SentPackets 618
scalar World.node[39].nic.mac1609_4 SentAcknowledgements 0
scalar World.node[39].nic.mac1609_4 RetriesExceeded 0
scalar World.node[39].nic.mac1609_4 SNIRLostPackets 179
scalar World.node[39].nic.mac1609_4 RXTXLostPackets 0
scalar World.node[39].nic.mac1609_4 TotalLostPackets 179
scalar World.node[39].nic.mac1609_4 DroppedPacketsInMac 0
scalar World.node[39].nic.mac1609_4 TooLittleTime 0
scalar World.node[39].nic.mac1609_4 TimesIntoBackoff 619
scalar World.node[39].nic.mac1609_4 SlotsBackoff 4743
scalar World.node[39].nic.mac1609_4 NumInternalContention 0
scalar World.node[39].nic.mac1609_4 totalBusyTime 5.11313
scalar World.node[39].nic.mac1609_4 retriesExceeded:count 0
attr source org_car2x_veins_modules_mac_sigRetriesExceeded
scalar World.node[39].nic.mac1609_4 sentAcks:count 0
attr source org_car2x_veins_modules_mac_sigSentAck
scalar World.node[39].nic.mac1609_4 sentPackets:count 618
attr source org_car2x_veins_modules_mac_sigSentPacket
scalar World.node[39].nic.mac1609_4 collisions:count 0
attr source org_car2x_veins_modules_mac_sigCollision
scalar World.node[39].nic.mac1609_4 channelBusy:timeavg 0.13779891088247
attr source org_car2x_veins_modules_mac_sigChannelBusy
scalar World.node[40].appl.middleware.DenService transmission:count 100
attr source DenmSent
scalar World.node[40].appl.middleware.DenService reception:count 20253
attr source DenmReceived
scalar World.node[40].nic.phy80211p busyTime 0.13464630683896
scalar World.node[40].nic.mac1609_4 ReceivedUnicastPackets 0
scalar World.node[40].nic.mac1609_4 ReceivedBroadcasts 22785
scalar World.node[40].nic.mac1609_4 SentPackets 601
scalar World.node[40].nic.mac1609_4 SentAcknowledgements 0
scalar World.node[40].nic.mac1609_4 RetriesExceeded 0
scalar World.node[40].nic.mac1609_4 SNIRLostPackets 505
scalar World.node[40].nic.mac1609_4 RXTXLostPackets 0
scalar World.node[40].nic.mac1609_4 TotalLostPackets 505
scalar World.node[40].nic.mac1609_4 DroppedPacketsInMac 0
scalar World.node[40].nic.mac1609_4 TooLittleTime 0
scalar World.node[40].nic.mac1609_4 TimesIntoBackoff 601
scalar World.node[40].nic.mac1609_4 SlotsBackoff 2793
scalar World.node[40].nic.mac1609_4 NumInternalContention 0
scalar World.node[40].nic.mac1609_4 totalBusyTime 4.932113
scalar World.node[40].nic.mac1609_4 retriesExceeded:count 0
attr source org_car2x_veins_modules_mac_sigRetriesExceeded
scalar World.node[40].nic.mac1609_4 sentAcks:count 0
attr source org_car2x_veins_modules_mac_sigSentAck
scalar World.node[40].nic.mac1609_4 sentPackets:count 601
attr source org_car2x_veins_modules_mac_sigSentPacket
scalar World.node[40].nic.mac1609_4 collisions:count 0
attr source org_car2x_veins_modules_mac_sigCollision
scalar World.node[40].nic.mac1609_4 channelBusy:timeavg 0.13660192408819
attr source org_car2x_veins_modules_mac_sigChannelBusy
scalar World.node[41].appl.middleware.DenService transmission:count 0
attr source DenmSent
scalar World.node[41].appl.middleware.DenService reception:count 21714
attr source DenmReceived
scalar World.node[41].nic.phy80211p busyTime 0.14363555883414
scalar World.node[41].nic.mac1609_4 ReceivedUnicastPackets 0
scalar World.node[41].nic.mac1609_4 ReceivedBroadcasts 24012
scalar World.node[41].nic.mac1609_4 SentPackets 584
scalar World.node[41].nic.mac1609_4 SentAcknowledgements 0
scalar World.node[41].nic.mac1609_4 RetriesExceeded 0
scalar World.node[41].nic.mac1609_4 SNIRLostPackets 181
scalar World.node[41].nic.mac1609_4 RXTXLostPackets 0
scalar World.node[41].nic.mac1609_4 TotalLostPackets 181
scalar World.node[41].nic.mac1609_4 DroppedPacketsInMac 0
scalar World.node[41].nic.mac1609_4 TooLittleTime 0
scalar World.node[41].nic.mac1609_4 TimesIntoBackoff 584
scalar World.node[41].nic.mac1609_4 SlotsBackoff 4453
scalar World.node[41].nic.mac1609_4 NumInternalContention 0
scalar World.node[41].nic.mac1609_4 totalBusyTime 5.146848037372
scalar World.node[41].nic.mac1609_4 retriesExceeded:count 0
attr source org_car2x_veins_modules_mac_sigRetriesExceeded
scalar World.node[41].nic.mac1609_4 sentAcks:count 0
attr source org_car2x_veins_modules_mac_sigSentAck
scalar World.node[41].nic.mac1609_4 sentPackets:count 584
attr source org_car2x_veins_modules_mac_sigSentPacket
scalar World.node[41].nic.mac1609_4 collisions:count 0
attr source org_car2x_veins_modules_mac_sigCollision
scalar World.node[41].nic.mac1609_4 channelBusy:timeavg 0.14660988865736
attr source org_car2x_veins_modules_mac_sigChannelBusy
scalar World.node[42].appl.middleware.DenService transmission:count 30
attr source DenmSent
scalar World.node[42].appl.middleware.DenService reception:count 21071
attr source DenmReceived
scalar World.node[42].nic.phy80211p busyTime 0.14702183846281
scalar World.node[42].nic.mac1609_4 ReceivedUnicastPackets 0
scalar World.node[42].nic.mac1609_4 ReceivedBroadcasts 23763
scalar World.node[42].nic.mac1609_4 SentPackets 568
scalar World.node[42].nic.mac1609_4 SentAcknowledgements 0
scalar World.node[42].nic.mac1609_4 RetriesExceeded 0
scalar World.node[42].nic.mac1609_4 SNIRLostPackets 249
scalar World.node[42].nic.mac1609_4 RXTXLostPackets 0
scalar World.node[42].nic.mac1609_4 TotalLostPackets 249
scalar World.node[42].nic.mac1609_4 DroppedPacketsInMac 0
scalar World.node[42].nic.mac1609_4 TooLittleTime 0
scalar World.node[42].nic.mac1609_4 TimesIntoBackoff 568
scalar World.node[42].nic.mac1609_4 SlotsBackoff 2730
scalar World.node[42].nic.mac1609_4 NumInternalContention 0
scalar World.node[42].nic.mac1609_4 totalBusyTime 5.104731734871
scalar World.node[42].nic.mac1609_4 retriesExceeded:count 0
attr source org_car2x_veins_modules_mac_sigRetriesExceeded
scalar World.node[42].nic.mac1609_4 sentAcks:count 0
attr source org_car2x_veins_modules_mac_sigSentAck
scalar World.node[42].nic.mac1609_4 sentPackets:count 568
attr source org_car2x_veins_modules_mac_sigSentPacket
scalar World.node[42].nic.mac1609_4 collisions:count 0
attr source org_car2x_veins_modules_mac_sigCollision
scalar World.node[42].nic.mac1609_4 channelBusy:timeavg 0.14967370133511
attr source org_car2x_veins_modules_mac_sigChannelBusy
scalar World.node[43].appl.middleware.DenService transmission:count 0
attr source DenmSent
scalar World.node[43].appl.middleware.DenService reception:count 20927
attr source DenmReceived
scalar World.node[43].nic.phy80211p busyTime 0.14768002768121
scalar World.node[43].nic.mac1609_4 ReceivedUnicastPackets 0
scalar World.node[43].nic.mac1609_4 ReceivedBroadcasts 23181
scalar World.node[43].nic.mac1609_4 SentPackets 551
scalar World.node[43].nic.mac1609_4 SentAcknowledgements 0
scalar World.node[43].nic.mac1609_4 RetriesExceeded 0
scalar World.node[43].nic.mac1609_4 SNIRLostPackets 264
scalar World.node[43].nic.mac1609_4 RXTXLostPackets 0
scalar World.node[43].nic.mac1609_4 TotalLostPackets 264
scalar World.node[43].nic.mac1609_4 DroppedPacketsInMac 0
scalar World.node[43].nic.mac1609_4 TooLittleTime 0
scalar World.node[43].nic.mac1609_4 TimesIntoBackoff 551
scalar World.node[43].nic.mac1609_4 SlotsBackoff 4137
scalar World.node[43].nic.mac1609_4 NumInternalContention 0
scalar World.node[43].nic.mac1609_4 totalBusyTime 4.97935890067
scalar World.node[43].nic.mac1609_4 retriesExceeded:count 0
attr source org_car2x_veins_modules_mac_sigRetriesExceeded
scalar World.node[43].nic.mac1609_4 sentAcks:count 0
attr source org_car2x_veins_modules_mac_sigSentAck
scalar World.node[43].nic.mac1609_4 sentPackets:count 551
attr source org_car2x_veins_modules_mac_sigSentPacket
scalar World.node[43].nic.mac1609_4 collisions:count 0
attr source org_car2x_veins_modules_mac_sigCollision
scalar World.node[43].nic.mac1609_4 channelBusy:timeavg 0.15040773930297
attr source org_car2x_veins_modules_mac_sigChannelBusy
scalar World.node[44].appl.middleware.DenService transmission:count 214
attr source DenmSent
scalar World.node[44].appl.middleware.DenService reception:count 19349
attr source DenmReceived
scalar World.node[44].nic.phy80211p busyTime 0.14698072785363
scalar World.node[44].nic.mac1609_4 ReceivedUnicastPackets 0
scalar World.node[44].nic.mac1609_4 ReceivedBroadcasts 21865
scalar World.node[44].nic.mac1609_4 SentPackets 525
scalar World.node[44].nic.mac1609_4 SentAcknowledgements 0
scalar World.node[44].nic.mac1609_4 RetriesExceeded 0
scalar World.node[44].nic.mac1609_4 SNIRLostPackets 320
scalar World.node[44].nic.mac1609_4 RXTXLostPackets 0
scalar World.node[44].nic.mac1609_4 TotalLostPackets 320
scalar World.node[44].nic.mac1609_4 DroppedPacketsInMac 0
scalar World.node[44].nic.mac1609_4 TooLittleTime 0
scalar World.node[44].nic.mac1609_4 TimesIntoBackoff 525
scalar World.node[44].nic.mac1609_4 SlotsBackoff 2596
scalar World.node[44].nic.mac1609_4 NumInternalContention 0
scalar World.node[44].nic.mac1609_4 totalBusyTime 4.704031916026
scalar World.node[44].nic.mac1609_4 retriesExceeded:count 0
attr source org_car2x_veins_modules_mac_sigRetriesExceeded
scalar World.node[44].nic.mac1609_4 sentAcks:count 0
attr source org_car2x_veins_modules_mac_sigSentAck
scalar World.node[44].nic.mac1609_4 sentPackets:count 525
attr source org_car2x_veins_modules_mac_sigSentPacket
scalar World.node[44].nic.mac1609_4 collisions:count 0
attr source org_car2x_veins_modules_mac_sigCollision
scalar World.node[44].nic.mac1609_4 channelBusy:timeavg 0.14930715870311
attr source org_car2x_veins_modules_mac_sigChannelBusy
scalar World.node[45].appl.middleware.DenService transmission:count 210
attr source DenmSent
scalar World.node[45].appl.middleware.DenService reception:count 20173
attr source DenmReceived
scalar World.node[45].nic.phy80211p busyTime 0.15563354647404
scalar World.node[45].nic.mac1609_4 ReceivedUnicastPackets 0
scalar World.node[45].nic.mac1609_4 ReceivedBroadcasts 22729
scalar World.node[45].nic.mac1609_4 SentPackets 518
scalar World.node[45].nic.mac1609_4 SentAcknowledgements 0
scalar World.node[45].nic.mac1609_4 RetriesExceeded 0
scalar World.node[45].nic.mac1609_4 SNIRLostPackets 476
scalar World.node[45].nic.mac1609_4 RXTXLostPackets 0
scalar World.node[45].nic.mac1609_4 TotalLostPackets 476
scalar World.node[45].nic.mac1609_4 DroppedPacketsInMac 0
scalar World.node[45].nic.mac1609_4 TooLittleTime 0
scalar World.node[45].nic.mac1609_4 TimesIntoBackoff 526
scalar World.node[45].nic.mac1609_4 SlotsBackoff 2548
scalar World.node[45].nic.mac1609_4 NumInternalContention 0
scalar World.node[45].nic.mac1609_4 totalBusyTime 4.897262
scalar World.node[45].nic.mac1609_4 retriesExceeded:count 0
attr source org_car2x_veins_modules_mac_sigRetriesExceeded
scalar World.node[45].nic.mac1609_4 sentAcks:count 0
attr source org_car2x_veins_modules_mac_sigSentAck
scalar World.node[45].nic.mac1609_4 sentPackets:count 518
attr source org_car2x_veins_modules_mac_sigSentPacket
scalar World.node[45].nic.mac1609_4 collisions:count 0
attr source org_car2x_veins_modules_mac_sigCollision
scalar World.node[45].nic.mac1609_4 channelBusy:timeavg 0.15743919415615
attr source org_car2x_veins_modules_mac_sigChannelBusy
scalar World.node[46].appl.middleware.DenService transmission:count 200
attr source DenmSent
scalar World.node[46].appl.middleware.DenService reception:count 19860
attr source DenmReceived
scalar World.node[46].nic.phy80211p busyTime 0.16039149515067
scalar World.node[46].nic.mac1609_4 ReceivedUnicastPackets 0
scalar World.node[46].nic.mac1609_4 ReceivedBroadcasts 22610
scalar World.node[46].nic.mac1609_4 SentPackets 501
scalar World.node[46].nic.mac1609_4 SentAcknowledgements 0
scalar World.node[46].nic.mac1609_4 RetriesExceeded 0
scalar World.node[46].nic.mac1609_4 SNIRLostPackets 488
scalar World.node[46].nic.mac1609_4 RXTXLostPackets 0
scalar World.node[46].nic.mac1609_4 TotalLostPackets 488
scalar World.node[46].nic.mac1609_4 DroppedPacketsInMac 0
scalar World.node[46].nic.mac1609_4 TooLittleTime 0
scalar World.node[46].nic.mac1609_4 TimesIntoBackoff 515
scalar World.node[46].nic.mac1609_4 SlotsBackoff 2399
scalar World.node[46].nic.mac1609_4 NumInternalContention 0
scalar World.node[46].nic.mac1609_4 totalBusyTime 4.865257603287
scalar World.node[46].nic.mac1609_4 retriesExceeded:count 0
attr source org_car2x_veins_modules_mac_sigRetriesExceeded
scalar World.node[46].nic.mac1609_4 sentAcks:count 0
attr source org_car2x_veins_modules_mac_sigSentAck
scalar World.node[46].nic.mac1609_4 sentPackets:count 501
attr source org_car2x_veins_modules_mac_sigSentPacket
scalar World.node[46].nic.mac1609_4 collisions:count 0
attr source org_car2x_veins_modules_mac_sigCollision
scalar World.node[46].nic.mac1609_4 channelBusy:timeavg 0.1616056691991
attr source org_car2x_veins_modules_mac_sigChannelBusy
scalar World.node[48].appl.middleware.DenService transmission:count 0
attr source DenmSent
scalar World.node[48].appl.middleware.DenService reception:count 18390
attr source DenmReceived
scalar World.node[48].nic.phy80211p busyTime 0.15211044496939
scalar World.node[48].nic.mac1609_4 ReceivedUnicastPackets 0
scalar World.node[48].nic.mac1609_4 ReceivedBroadcasts 20355
scalar World.node[48].nic.mac1609_4 SentPackets 468
scalar World.node[48].nic.mac1609_4 SentAcknowledgements 0
scalar World.node[48].nic.mac1609_4 RetriesExceeded 0
scalar World.node[48].nic.mac1609_4 SNIRLostPackets 163
scalar World.node[48].nic.mac1609_4 RXTXLostPackets 0
scalar World.node[48].nic.mac1609_4 TotalLostPackets 163
scalar World.node[48].nic.mac1609_4 DroppedPacketsInMac 0
scalar World.node[48].nic.mac1609_4 TooLittleTime 0
scalar World.node[48].nic.mac1609_4 TimesIntoBackoff 835
scalar World.node[48].nic.mac1609_4 SlotsBackoff 6204
scalar World.node[48].nic.mac1609_4 NumInternalContention 0
scalar World.node[48].nic.mac1609_4 totalBusyTime 4.355133059816
scalar World.node[48].nic.mac1609_4 retriesExceeded:count 0
attr source org_car2x_veins_modules_mac_sigRetriesExceeded
scalar World.node[48].nic.mac1609_4 sentAcks:count 0
attr source org_car2x_veins_modules_mac_sigSentAck
scalar World.node[48].nic.mac1609_4 sentPackets:count 468
attr source org_car2x_veins_modules_mac_sigSentPacket
scalar World.node[48].nic.mac1609_4 collisions:count 0
attr source org_car2x_veins_modules_mac_sigCollision
scalar World.node[48].nic.mac1609_4 channelBusy:timeavg 0.15495531122684
attr source org_car2x_veins_modules_mac_sigChannelBusy
scalar World.node[49].appl.middleware.DenService transmission:count 0
attr source DenmSent
scalar World.node[49].appl.middleware.DenService reception:count 17952
attr source DenmReceived
scalar World.node[49].nic.phy80211p busyTime 0.153242251353
scalar World.node[49].nic.mac1609_4 ReceivedUnicastPackets 0
scalar World.node[49].nic.mac1609_4 ReceivedBroadcasts 19795
scalar World.node[49].nic.mac1609_4 SentPackets 451
scalar World.node[49].nic.mac1609_4 SentAcknowledgements 0
scalar World.node[49].nic.mac1609_4 RetriesExceeded 0
scalar World.node[49].nic.mac1609_4 SNIRLostPackets 122
scalar World.node[49].nic.mac1609_4 RXTXLostPackets 41
[...]
scalar World.node[64].nic.mac1609_4 totalBusyTime 1.940862825486
scalar World.node[64].nic.mac1609_4 retriesExceeded:count 0
attr source org_car2x_veins_modules_mac_sigRetriesExceeded
scalar World.node[64].nic.mac1609_4 sentAcks:count 0
attr source org_car2x_veins_modules_mac_sigSentAck
scalar World.node[64].nic.mac1609_4 sentPackets:count 184
attr source org_car2x_veins_modules_mac_sigSentPacket
scalar World.node[64].nic.mac1609_4 collisions:count 0
attr source org_car2x_veins_modules_mac_sigCollision
scalar World.node[64].nic.mac1609_4 channelBusy:timeavg 0.17476219820105
attr source org_car2x_veins_modules_mac_sigChannelBusy
scalar World.node[65].appl.middleware.DenService transmission:count 0
attr source DenmSent
scalar World.node[65].appl.middleware.DenService reception:count 7202
attr source DenmReceived
scalar World.node[65].nic.phy80211p busyTime 0.16855378075788
scalar World.node[65].nic.mac1609_4 ReceivedUnicastPackets 0
scalar World.node[65].nic.mac1609_4 ReceivedBroadcasts 8000
scalar World.node[65].nic.mac1609_4 SentPackets 168
scalar World.node[65].nic.mac1609_4 SentAcknowledgements 0
scalar World.node[65].nic.mac1609_4 RetriesExceeded 0
scalar World.node[65].nic.mac1609_4 SNIRLostPackets 144
scalar World.node[65].nic.mac1609_4 RXTXLostPackets 0
scalar World.node[65].nic.mac1609_4 TotalLostPackets 144
scalar World.node[65].nic.mac1609_4 DroppedPacketsInMac 0
scalar World.node[65].nic.mac1609_4 TooLittleTime 0
scalar World.node[65].nic.mac1609_4 TimesIntoBackoff 168
scalar World.node[65].nic.mac1609_4 SlotsBackoff 1286
scalar World.node[65].nic.mac1609_4 NumInternalContention 0
scalar World.node[65].nic.mac1609_4 totalBusyTime 1.7208649273
scalar World.node[65].nic.mac1609_4 retriesExceeded:count 0
attr source org_car2x_veins_modules_mac_sigRetriesExceeded
scalar World.node[65].nic.mac1609_4 sentAcks:count 0
attr source org_car2x_veins_modules_mac_sigSentAck
scalar World.node[65].nic.mac1609_4 sentPackets:count 168
attr source org_car2x_veins_modules_mac_sigSentPacket
scalar World.node[65].nic.mac1609_4 collisions:count 0
attr source org_car2x_veins_modules_mac_sigCollision
scalar World.node[65].nic.mac1609_4 channelBusy:timeavg 0.17028595814746
attr source org_car2x_veins_modules_mac_sigChannelBusy
scalar World.node[66].appl.middleware.DenService transmission:count 0
attr source DenmSent
scalar World.node[66].appl.middleware.DenService reception:count 6164
attr source DenmReceived
scalar World.node[66].nic.phy80211p busyTime 0.15760263744547
scalar World.node[66].nic.mac1609_4 ReceivedUnicastPackets 0
scalar World.node[66].nic.mac1609_4 ReceivedBroadcasts 6788
scalar World.node[66].nic.mac1609_4 SentPackets 151
scalar World.node[66].nic.mac1609_4 SentAcknowledgements 0
scalar World.node[66].nic.mac1609_4 RetriesExceeded 0
scalar World.node[66].nic.mac1609_4 SNIRLostPackets 95
scalar World.node[66].nic.mac1609_4 RXTXLostPackets 15
scalar World.node[66].nic.mac1609_4 TotalLostPackets 110
scalar World.node[66].nic.mac1609_4 DroppedPacketsInMac 0
scalar World.node[66].nic.mac1609_4 TooLittleTime 0
scalar World.node[66].nic.mac1609_4 TimesIntoBackoff 158
scalar World.node[66].nic.mac1609_4 SlotsBackoff 1117
scalar World.node[66].nic.mac1609_4 NumInternalContention 0
scalar World.node[66].nic.mac1609_4 totalBusyTime 1.456927
scalar World.node[66].nic.mac1609_4 retriesExceeded:count 0
attr source org_car2x_veins_modules_mac_sigRetriesExceeded
scalar World.node[66].nic.mac1609_4 sentAcks:count 0
attr source org_car2x_veins_modules_mac_sigSentAck
scalar World.node[66].nic.mac1609_4 sentPackets:count 151
attr source org_car2x_veins_modules_mac_sigSentPacket
scalar World.node[66].nic.mac1609_4 collisions:count 0
attr source org_car2x_veins_modules_mac_sigCollision
scalar World.node[66].nic.mac1609_4 channelBusy:timeavg 0.16000101580218
attr source org_car2x_veins_modules_mac_sigChannelBusy
scalar World.node[67].appl.middleware.DenService transmission:count 0
attr source DenmSent
scalar World.node[67].appl.middleware.DenService reception:count 5849
attr source DenmReceived
scalar World.node[67].nic.phy80211p busyTime 0.17030409209557
scalar World.node[67].nic.mac1609_4 ReceivedUnicastPackets 0
scalar World.node[67].nic.mac1609_4 ReceivedBroadcasts 6475
scalar World.node[67].nic.mac1609_4 SentPackets 134
scalar World.node[67].nic.mac1609_4 SentAcknowledgements 0
scalar World.node[67].nic.mac1609_4 RetriesExceeded 0
scalar World.node[67].nic.mac1609_4 SNIRLostPackets 132
scalar World.node[67].nic.mac1609_4 RXTXLostPackets 0
scalar World.node[67].nic.mac1609_4 TotalLostPackets 132
scalar World.node[67].nic.mac1609_4 DroppedPacketsInMac 0
scalar World.node[67].nic.mac1609_4 TooLittleTime 0
scalar World.node[67].nic.mac1609_4 TimesIntoBackoff 134
scalar World.node[67].nic.mac1609_4 SlotsBackoff 961
scalar World.node[67].nic.mac1609_4 NumInternalContention 0
scalar World.node[67].nic.mac1609_4 totalBusyTime 1.394590185534
scalar World.node[67].nic.mac1609_4 retriesExceeded:count 0
attr source org_car2x_veins_modules_mac_sigRetriesExceeded
scalar World.node[67].nic.mac1609_4 sentAcks:count 0
attr source org_car2x_veins_modules_mac_sigSentAck
scalar World.node[67].nic.mac1609_4 sentPackets:count 134
attr source org_car2x_veins_modules_mac_sigSentPacket
scalar World.node[67].nic.mac1609_4 collisions:count 0
attr source org_car2x_veins_modules_mac_sigCollision
scalar World.node[67].nic.mac1609_4 channelBusy:timeavg 0.1720497923798
attr source org_car2x_veins_modules_mac_sigChannelBusy
scalar World.node[68].appl.middleware.DenService transmission:count 0
attr source DenmSent
scalar World.node[68].appl.middleware.DenService reception:count 5305
attr source DenmReceived
scalar World.node[68].nic.phy80211p busyTime 0.17673946944182
scalar World.node[68].nic.mac1609_4 ReceivedUnicastPackets 0
scalar World.node[68].nic.mac1609_4 ReceivedBroadcasts 5884
scalar World.node[68].nic.mac1609_4 SentPackets 117
scalar World.node[68].nic.mac1609_4 SentAcknowledgements 0
scalar World.node[68].nic.mac1609_4 RetriesExceeded 0
scalar World.node[68].nic.mac1609_4 SNIRLostPackets 122
scalar World.node[68].nic.mac1609_4 RXTXLostPackets 0
scalar World.node[68].nic.mac1609_4 TotalLostPackets 122
scalar World.node[68].nic.mac1609_4 DroppedPacketsInMac 0
scalar World.node[68].nic.mac1609_4 TooLittleTime 0
scalar World.node[68].nic.mac1609_4 TimesIntoBackoff 117
scalar World.node[68].nic.mac1609_4 SlotsBackoff 898
scalar World.node[68].nic.mac1609_4 NumInternalContention 0
scalar World.node[68].nic.mac1609_4 totalBusyTime 1.268862668016
scalar World.node[68].nic.mac1609_4 retriesExceeded:count 0
attr source org_car2x_veins_modules_mac_sigRetriesExceeded
scalar World.node[68].nic.mac1609_4 sentAcks:count 0
attr source org_car2x_veins_modules_mac_sigSentAck
scalar World.node[68].nic.mac1609_4 sentPackets:count 117
attr source org_car2x_veins_modules_mac_sigSentPacket
scalar World.node[68].nic.mac1609_4 collisions:count 0
attr source org_car2x_veins_modules_mac_sigCollision
scalar World.node[68].nic.mac1609_4 channelBusy:timeavg 0.17856878988463
attr source org_car2x_veins_modules_mac_sigChannelBusy
scalar World.node[7].appl.middleware.DenService transmission:count 590
attr source DenmSent
scalar World.node[7].appl.middleware.DenService reception:count 30798
attr source DenmReceived
scalar World.node[7].nic.phy80211p busyTime 0.11250099422681
scalar World.node[7].nic.mac1609_4 ReceivedUnicastPackets 0
scalar World.node[7].nic.mac1609_4 ReceivedBroadcasts 36387
scalar World.node[7].nic.mac1609_4 SentPackets 1106
scalar World.node[7].nic.mac1609_4 SentAcknowledgements 0
scalar World.node[7].nic.mac1609_4 RetriesExceeded 0
scalar World.node[7].nic.mac1609_4 SNIRLostPackets 643
scalar World.node[7].nic.mac1609_4 RXTXLostPackets 0
scalar World.node[7].nic.mac1609_4 TotalLostPackets 643
scalar World.node[7].nic.mac1609_4 DroppedPacketsInMac 0
scalar World.node[7].nic.mac1609_4 TooLittleTime 0
scalar World.node[7].nic.mac1609_4 TimesIntoBackoff 1223
scalar World.node[7].nic.mac1609_4 SlotsBackoff 4751
scalar World.node[7].nic.mac1609_4 NumInternalContention 0
scalar World.node[7].nic.mac1609_4 totalBusyTime 7.925251183831
scalar World.node[7].nic.mac1609_4 retriesExceeded:count 0
attr source org_car2x_veins_modules_mac_sigRetriesExceeded
scalar World.node[7].nic.mac1609_4 sentAcks:count 0
attr source org_car2x_veins_modules_mac_sigSentAck
scalar World.node[7].nic.mac1609_4 sentPackets:count 1106
attr source org_car2x_veins_modules_mac_sigSentPacket
scalar World.node[7].nic.mac1609_4 collisions:count 0
attr source org_car2x_veins_modules_mac_sigCollision
scalar World.node[7].nic.mac1609_4 channelBusy:timeavg 0.11468297205803
attr source org_car2x_veins_modules_mac_sigChannelBusy
scalar World.node[69].appl.middleware.DenService transmission:count 0
attr source DenmSent
scalar World.node[69].appl.middleware.DenService reception:count 4483
attr source DenmReceived
scalar World.node[69].nic.phy80211p busyTime 0.17424402405926
scalar World.node[69].nic.mac1609_4 ReceivedUnicastPackets 0
scalar World.node[69].nic.mac1609_4 ReceivedBroadcasts 4985
scalar World.node[69].nic.mac1609_4 SentPackets 101
scalar World.node[69].nic.mac1609_4 SentAcknowledgements 0
scalar World.node[69].nic.mac1609_4 RetriesExceeded 0
scalar World.node[69].nic.mac1609_4 SNIRLostPackets 109
scalar World.node[69].nic.mac1609_4 RXTXLostPackets 0
scalar World.node[69].nic.mac1609_4 TotalLostPackets 109
scalar World.node[69].nic.mac1609_4 DroppedPacketsInMac 0
scalar World.node[69].nic.mac1609_4 TooLittleTime 0
scalar World.node[69].nic.mac1609_4 TimesIntoBackoff 101
scalar World.node[69].nic.mac1609_4 SlotsBackoff 704
scalar World.node[69].nic.mac1609_4 NumInternalContention 0
scalar World.node[69].nic.mac1609_4 totalBusyTime 1.074557
scalar World.node[69].nic.mac1609_4 retriesExceeded:count 0
attr source org_car2x_veins_modules_mac_sigRetriesExceeded
scalar World.node[69].nic.mac1609_4 sentAcks:count 0
attr source org_car2x_veins_modules_mac_sigSentAck
scalar World.node[69].nic.mac1609_4 sentPackets:count 101
attr source org_car2x_veins_modules_mac_sigSentPacket
scalar World.node[69].nic.mac1609_4 collisions:count 0
attr source org_car2x_veins_modules_mac_sigCollision
scalar World.node[69].nic.mac1609_4 channelBusy:timeavg 0.17599139736612
attr source org_car2x_veins_modules_mac_sigChannelBusy
scalar World.node[70].appl.middleware.DenService transmission:count 0
attr source DenmSent
scalar World.node[70].appl.middleware.DenService reception:count 2855
attr source DenmReceived
scalar World.node[70].nic.phy80211p busyTime 0.12651966486558
scalar World.node[70].nic.mac1609_4 ReceivedUnicastPackets 0
scalar World.node[70].nic.mac1609_4 ReceivedBroadcasts 3107
scalar World.node[70].nic.mac1609_4 SentPackets 84
scalar World.node[70].nic.mac1609_4 SentAcknowledgements 0
scalar World.node[70].nic.mac1609_4 RetriesExceeded 0
scalar World.node[70].nic.mac1609_4 SNIRLostPackets 7
scalar World.node[70].nic.mac1609_4 RXTXLostPackets 0
scalar World.node[70].nic.mac1609_4 TotalLostPackets 7
scalar World.node[70].nic.mac1609_4 DroppedPacketsInMac 0
scalar World.node[70].nic.mac1609_4 TooLittleTime 0
scalar World.node[70].nic.mac1609_4 TimesIntoBackoff 84
scalar World.node[70].nic.mac1609_4 SlotsBackoff 592
scalar World.node[70].nic.mac1609_4 NumInternalContention 0
scalar World.node[70].nic.mac1609_4 totalBusyTime 0.663492
scalar World.node[70].nic.mac1609_4 retriesExceeded:count 0
attr source org_car2x_veins_modules_mac_sigRetriesExceeded
scalar World.node[70].nic.mac1609_4 sentAcks:count 0
attr source org_car2x_veins_modules_mac_sigSentAck
scalar World.node[70].nic.mac1609_4 sentPackets:count 84
attr source org_car2x_veins_modules_mac_sigSentPacket
scalar World.node[70].nic.mac1609_4 collisions:count 0
attr source org_car2x_veins_modules_mac_sigCollision
scalar World.node[70].nic.mac1609_4 channelBusy:timeavg 0.1299503162362
attr source org_car2x_veins_modules_mac_sigChannelBusy
scalar World.node[71].appl.middleware.DenService transmission:count 0
attr source DenmSent
scalar World.node[71].appl.middleware.DenService reception:count 3017
attr source DenmReceived
scalar World.node[71].nic.phy80211p busyTime 0.17493769948318
scalar World.node[71].nic.mac1609_4 ReceivedUnicastPackets 0
scalar World.node[71].nic.mac1609_4 ReceivedBroadcasts 3369
scalar World.node[71].nic.mac1609_4 SentPackets 69
scalar World.node[71].nic.mac1609_4 SentAcknowledgements 0
scalar World.node[71].nic.mac1609_4 RetriesExceeded 0
scalar World.node[71].nic.mac1609_4 SNIRLostPackets 68
scalar World.node[71].nic.mac1609_4 RXTXLostPackets 0
scalar World.node[71].nic.mac1609_4 TotalLostPackets 68
scalar World.node[71].nic.mac1609_4 DroppedPacketsInMac 0
scalar World.node[71].nic.mac1609_4 TooLittleTime 0
scalar World.node[71].nic.mac1609_4 TimesIntoBackoff 69
scalar World.node[71].nic.mac1609_4 SlotsBackoff 526
scalar World.node[71].nic.mac1609_4 NumInternalContention 0
scalar World.node[71].nic.mac1609_4 totalBusyTime 0.725557
scalar World.node[71].nic.mac1609_4 retriesExceeded:count 0
attr source org_car2x_veins_modules_mac_sigRetriesExceeded
scalar World.node[71].nic.mac1609_4 sentAcks:count 0
attr source org_car2x_veins_modules_mac_sigSentAck
scalar World.node[71].nic.mac1609_4 sentPackets:count 69
attr source org_car2x_veins_modules_mac_sigSentPacket
scalar World.node[71].nic.mac1609_4 collisions:count 0
attr source org_car2x_veins_modules_mac_sigCollision
scalar World.node[71].nic.mac1609_4 channelBusy:timeavg 0.17671789190351
attr source org_car2x_veins_modules_mac_sigChannelBusy
scalar World.node[72].appl.middleware.DenService transmission:count 0
attr source DenmSent
scalar World.node[72].appl.middleware.DenService reception:count 2209
attr source DenmReceived
scalar World.node[72].nic.phy80211p busyTime 0.16680619667481
scalar World.node[72].nic.mac1609_4 ReceivedUnicastPackets 0
scalar World.node[72].nic.mac1609_4 ReceivedBroadcasts 2425
scalar World.node[72].nic.mac1609_4 SentPackets 51
scalar World.node[72].nic.mac1609_4 SentAcknowledgements 0
scalar World.node[72].nic.mac1609_4 RetriesExceeded 0
scalar World.node[72].nic.mac1609_4 SNIRLostPackets 51
scalar World.node[72].nic.mac1609_4 RXTXLostPackets 0
scalar World.node[72].nic.mac1609_4 TotalLostPackets 51
scalar World.node[72].nic.mac1609_4 DroppedPacketsInMac 0
scalar World.node[72].nic.mac1609_4 TooLittleTime 0
scalar World.node[72].nic.mac1609_4 TimesIntoBackoff 51
scalar World.node[72].nic.mac1609_4 SlotsBackoff 295
scalar World.node[72].nic.mac1609_4 NumInternalContention 0
scalar World.node[72].nic.mac1609_4 totalBusyTime 0.523667
scalar World.node[72].nic.mac1609_4 retriesExceeded:count 0
attr source org_car2x_veins_modules_mac_sigRetriesExceeded
scalar World.node[72].nic.mac1609_4 sentAcks:count 0
attr source org_car2x_veins_modules_mac_sigSentAck
scalar World.node[72].nic.mac1609_4 sentPackets:count 51
attr source org_car2x_veins_modules_mac_sigSentPacket
scalar World.node[72].nic.mac1609_4 collisions:count 0
attr source org_car2x_veins_modules_mac_sigCollision
scalar World.node[72].nic.mac1609_4 channelBusy:timeavg 0.16861285381138
attr source org_car2x_veins_modules_mac_sigChannelBusy
scalar World.node[73].appl.middleware.DenService transmission:count 0
attr source DenmSent
scalar World.node[73].appl.middleware.DenService reception:count 1580
attr source DenmReceived
scalar World.node[73].nic.phy80211p busyTime 0.17658054505605
scalar World.node[73].nic.mac1609_4 ReceivedUnicastPackets 0
scalar World.node[73].nic.mac1609_4 ReceivedBroadcasts 1736
scalar World.node[73].nic.mac1609_4 SentPackets 35
scalar World.node[73].nic.mac1609_4 SentAcknowledgements 0
scalar World.node[73].nic.mac1609_4 RetriesExceeded 0
scalar World.node[73].nic.mac1609_4 SNIRLostPackets 37
scalar World.node[73].nic.mac1609_4 RXTXLostPackets 0
scalar World.node[73].nic.mac1609_4 TotalLostPackets 37
scalar World.node[73].nic.mac1609_4 DroppedPacketsInMac 0
scalar World.node[73].nic.mac1609_4 TooLittleTime 0
scalar World.node[73].nic.mac1609_4 TimesIntoBackoff 35
scalar World.node[73].nic.mac1609_4 SlotsBackoff 260
scalar World.node[73].nic.mac1609_4 NumInternalContention 0
scalar World.node[73].nic.mac1609_4 totalBusyTime 0.375339049996
scalar World.node[73].nic.mac1609_4 retriesExceeded:count 0
attr source org_car2x_veins_modules_mac_sigRetriesExceeded
scalar World.node[73].nic.mac1609_4 sentAcks:count 0
attr source org_car2x_veins_modules_mac_sigSentAck
scalar World.node[73].nic.mac1609_4 sentPackets:count 35
attr source org_car2x_veins_modules_mac_sigSentPacket
scalar World.node[73].nic.mac1609_4 collisions:count 0
attr source org_car2x_veins_modules_mac_sigCollision
scalar World.node[73].nic.mac1609_4 channelBusy:timeavg 0.17824601978612
attr source org_car2x_veins_modules_mac_sigChannelBusy
scalar World.node[74].appl.middleware.DenService transmission:count 0
attr source DenmSent
scalar World.node[74].appl.middleware.DenService reception:count 148
attr source DenmReceived
scalar World.node[74].nic.phy80211p busyTime 0.17012098143008
scalar World.node[74].nic.mac1609_4 ReceivedUnicastPackets 0
scalar World.node[74].nic.mac1609_4 ReceivedBroadcasts 161
scalar World.node[74].nic.mac1609_4 SentPackets 3
scalar World.node[74].nic.mac1609_4 SentAcknowledgements 0
scalar World.node[74].nic.mac1609_4 RetriesExceeded 0
scalar World.node[74].nic.mac1609_4 SNIRLostPackets 2
scalar World.node[74].nic.mac1609_4 RXTXLostPackets 0
scalar World.node[74].nic.mac1609_4 TotalLostPackets 2
scalar World.node[74].nic.mac1609_4 DroppedPacketsInMac 0
scalar World.node[74].nic.mac1609_4 TooLittleTime 0
scalar World.node[74].nic.mac1609_4 TimesIntoBackoff 3
scalar World.node[74].nic.mac1609_4 SlotsBackoff 16
scalar World.node[74].nic.mac1609_4 NumInternalContention 0
scalar World.node[74].nic.mac1609_4 totalBusyTime 0.035627
scalar World.node[74].nic.mac1609_4 retriesExceeded:count 0
attr source org_car2x_veins_modules_mac_sigRetriesExceeded
scalar World.node[74].nic.mac1609_4 sentAcks:count 0
attr source org_car2x_veins_modules_mac_sigSentAck
scalar World.node[74].nic.mac1609_4 sentPackets:count 3
attr source org_car2x_veins_modules_mac_sigSentPacket
scalar World.node[74].nic.mac1609_4 collisions:count 0
attr source org_car2x_veins_modules_mac_sigCollision
scalar World.node[74].nic.mac1609_4 channelBusy:timeavg 0.17316857729741
attr source org_car2x_veins_modules_mac_sigChannelBusy
scalar World.node[75].appl.middleware.DenService transmission:count 0
attr source DenmSent
scalar World.node[75].appl.middleware.DenService reception:count 86
attr source DenmReceived
scalar World.node[75].nic.phy80211p busyTime 0.17613689374908
scalar World.node[75].nic.mac1609_4 ReceivedUnicastPackets 0
scalar World.node[75].nic.mac1609_4 ReceivedBroadcasts 93
scalar World.node[75].nic.mac1609_4 SentPackets 8
scalar World.node[75].nic.mac1609_4 SentAcknowledgements 0
scalar World.node[75].nic.mac1609_4 RetriesExceeded 0
scalar World.node[75].nic.mac1609_4 SNIRLostPackets 0
scalar World.node[75].nic.mac1609_4 RXTXLostPackets 0
scalar World.node[75].nic.mac1609_4 TotalLostPackets 0
scalar World.node[75].nic.mac1609_4 DroppedPacketsInMac 0
scalar World.node[75].nic.mac1609_4 TooLittleTime 0
scalar World.node[75].nic.mac1609_4 TimesIntoBackoff 7
scalar World.node[75].nic.mac1609_4 SlotsBackoff 2141
scalar World.node[75].nic.mac1609_4 NumInternalContention 0
scalar World.node[75].nic.mac1609_4 totalBusyTime 0.020667242618
scalar World.node[75].nic.mac1609_4 retriesExceeded:count 0
attr source org_car2x_veins_modules_mac_sigRetriesExceeded
scalar World.node[75].nic.mac1609_4 sentAcks:count 0
attr source org_car2x_veins_modules_mac_sigSentAck
scalar World.node[75].nic.mac1609_4 sentPackets:count 8
attr source org_car2x_veins_modules_mac_sigSentPacket
scalar World.node[75].nic.mac1609_4 collisions:count 0
attr source org_car2x_veins_modules_mac_sigCollision
scalar World.node[75].nic.mac1609_4 channelBusy:timeavg 0.19825087525499
attr source org_car2x_veins_modules_mac_sigChannelBusy

