version 2
run veins-0-20250128-21:02:29-408995
attr configname veins
attr datetime 20250128-21:02:29
attr experiment veins
attr inifile omnetpp.ini
attr iterationvars ""
attr iterationvarsf ""
attr measurement ""
attr network artery.veins.World
attr processid 408995
attr repetition 0
attr replication #0
attr resultdir results
attr runnumber 0
attr seedset 0
param *.playgroundSizeX 2000m
param *.playgroundSizeY 1200m
param *.playgroundSizeZ 50m
param *.connectionManager.maxInterfDist 500m
param *.connectionManager.sendDirect true
param *.connectionManager.coreDebug false
param *.node[*].nic.mac1609_4.txPower 200mW
param *.node[*].nic.phy80211p.decider "xmldoc(\"config.xml\")"
param *.node[*].nic.phy80211p.analogueModels "xmldoc(\"config.xml\")"
param *.node[*].appl.middleware.updateInterval 0.1s
param *.node[*].appl.middleware.datetime "\"2025-03-10 12:00:00\""
param *.node[*].appl.middleware.services "xmldoc(\"services.xml\")"
param *.node[*].appl.middleware.DenService.useCases "xmldoc(\"den-use-cases.xml\")"
param *.withStoryboard true
param *.storyboard.python "\"demo\""
param *.traci.launcher.additionalOptions "\"--log-buffered --log-file=sumo_warnings.log\""
param *.traci.core.version -1
param *.traci.launcher.typename "\"PosixLauncher\""
param *.traci.launcher.sumocfg "\"Slott.sumo.cfg\""
param *.traci.launcher.sumo "\"sumo-gui\""
param *.node[*].wlan[*].typename "\"VanetNic\""
param *.node[*].wlan[*].radio.channelNumber 180
param *.node[*].wlan[*].radio.carrierFrequency "5.9 GHz"
param *.node[*].wlan[*].radio.transmitter.power "200 mW"
param *.node[*].middleware.updateInterval 0.1s
param *.node[*].middleware.datetime "\"2025-03-10 12:00:00\""
param *.node[*].middleware.services "xmldoc(\"services.xml\")"
param *.node[*].middleware.DenService.useCases "xmldoc(\"den-use-cases.xml\")"

scalar World.traci.launcher port 34815
scalar World.node[12].appl.middleware.DenService transmission:count 12
attr source DenmSent
scalar World.node[12].appl.middleware.DenService reception:count 2616
attr source DenmReceived
scalar World.node[12].nic.phy80211p busyTime 0.05789734513274
scalar World.node[12].nic.mac1609_4 ReceivedUnicastPackets 0
scalar World.node[12].nic.mac1609_4 ReceivedBroadcasts 3069
scalar World.node[12].nic.mac1609_4 SentPackets 188
scalar World.node[12].nic.mac1609_4 SentAcknowledgements 0
scalar World.node[12].nic.mac1609_4 RetriesExceeded 0
scalar World.node[12].nic.mac1609_4 SNIRLostPackets 0
scalar World.node[12].nic.mac1609_4 RXTXLostPackets 0
scalar World.node[12].nic.mac1609_4 TotalLostPackets 0
scalar World.node[12].nic.mac1609_4 DroppedPacketsInMac 0
scalar World.node[12].nic.mac1609_4 TooLittleTime 0
scalar World.node[12].nic.mac1609_4 TimesIntoBackoff 188
scalar World.node[12].nic.mac1609_4 SlotsBackoff 1360
scalar World.node[12].nic.mac1609_4 NumInternalContention 0
scalar World.node[12].nic.mac1609_4 totalBusyTime 0.694652
scalar World.node[12].nic.mac1609_4 retriesExceeded:count 0
attr source org_car2x_veins_modules_mac_sigRetriesExceeded
scalar World.node[12].nic.mac1609_4 sentAcks:count 0
attr source org_car2x_veins_modules_mac_sigSentAck
scalar World.node[12].nic.mac1609_4 sentPackets:count 188
attr source org_car2x_veins_modules_mac_sigSentPacket
scalar World.node[12].nic.mac1609_4 collisions:count 0
attr source org_car2x_veins_modules_mac_sigCollision
scalar World.node[12].nic.mac1609_4 channelBusy:timeavg 0.061473628318581
attr source org_car2x_veins_modules_mac_sigChannelBusy
scalar World.node[4].appl.middleware.DenService transmission:count 107
attr source DenmSent
scalar World.node[4].appl.middleware.DenService reception:count 2982
attr source DenmReceived
scalar World.node[4].nic.phy80211p busyTime 0.041783461538459
scalar World.node[4].nic.mac1609_4 ReceivedUnicastPackets 0
scalar World.node[4].nic.mac1609_4 ReceivedBroadcasts 4001
scalar World.node[4].nic.mac1609_4 SentPackets 246
scalar World.node[4].nic.mac1609_4 SentAcknowledgements 0
scalar World.node[4].nic.mac1609_4 RetriesExceeded 0
scalar World.node[4].nic.mac1609_4 SNIRLostPackets 0
scalar World.node[4].nic.mac1609_4 RXTXLostPackets 0
scalar World.node[4].nic.mac1609_4 TotalLostPackets 0
scalar World.node[4].nic.mac1609_4 DroppedPacketsInMac 0
scalar World.node[4].nic.mac1609_4 TooLittleTime 0
scalar World.node[4].nic.mac1609_4 TimesIntoBackoff 246
scalar World.node[4].nic.mac1609_4 SlotsBackoff 1165
scalar World.node[4].nic.mac1609_4 NumInternalContention 0
scalar World.node[4].nic.mac1609_4 totalBusyTime 0.921678
scalar World.node[4].nic.mac1609_4 retriesExceeded:count 0
attr source org_car2x_veins_modules_mac_sigRetriesExceeded
scalar World.node[4].nic.mac1609_4 sentAcks:count 0
attr source org_car2x_veins_modules_mac_sigSentAck
scalar World.node[4].nic.mac1609_4 sentPackets:count 246
attr source org_car2x_veins_modules_mac_sigSentPacket
scalar World.node[4].nic.mac1609_4 collisions:count 0
attr source org_car2x_veins_modules_mac_sigCollision
scalar World.node[4].nic.mac1609_4 channelBusy:timeavg 0.04431144230769
attr source org_car2x_veins_modules_mac_sigChannelBusy
scalar World.node[13].appl.middleware.DenService transmission:count 51
attr source DenmSent
scalar World.node[13].appl.middleware.DenService reception:count 3841
attr source DenmReceived
scalar World.node[13].nic.phy80211p busyTime 0.064884736842102
scalar World.node[13].nic.mac1609_4 ReceivedUnicastPackets 0
scalar World.node[13].nic.mac1609_4 ReceivedBroadcasts 4639
scalar World.node[13].nic.mac1609_4 SentPackets 252
scalar World.node[13].nic.mac1609_4 SentAcknowledgements 0
scalar World.node[13].nic.mac1609_4 RetriesExceeded 0
scalar World.node[13].nic.mac1609_4 SNIRLostPackets 13
scalar World.node[13].nic.mac1609_4 RXTXLostPackets 0
scalar World.node[13].nic.mac1609_4 TotalLostPackets 13
scalar World.node[13].nic.mac1609_4 DroppedPacketsInMac 0
scalar World.node[13].nic.mac1609_4 TooLittleTime 0
scalar World.node[13].nic.mac1609_4 TimesIntoBackoff 252
scalar World.node[13].nic.mac1609_4 SlotsBackoff 1649
scalar World.node[13].nic.mac1609_4 NumInternalContention 0
scalar World.node[13].nic.mac1609_4 totalBusyTime 1.039044
scalar World.node[13].nic.mac1609_4 retriesExceeded:count 0
attr source org_car2x_veins_modules_mac_sigRetriesExceeded
scalar World.node[13].nic.mac1609_4 sentAcks:count 0
attr source org_car2x_veins_modules_mac_sigSentAck
scalar World.node[13].nic.mac1609_4 sentPackets:count 252
attr source org_car2x_veins_modules_mac_sigSentPacket
scalar World.node[13].nic.mac1609_4 collisions:count 0
attr source org_car2x_veins_modules_mac_sigCollision
scalar World.node[13].nic.mac1609_4 channelBusy:timeavg 0.068358157894733
attr source org_car2x_veins_modules_mac_sigChannelBusy
scalar World.node[28].appl.middleware.DenService transmission:count 0
attr source DenmSent
scalar World.node[28].appl.middleware.DenService reception:count 769
attr source DenmReceived
scalar World.node[28].nic.phy80211p busyTime 0.087961904761906
scalar World.node[28].nic.mac1609_4 ReceivedUnicastPackets 0
scalar World.node[28].nic.mac1609_4 ReceivedBroadcasts 876
scalar World.node[28].nic.mac1609_4 SentPackets 34
scalar World.node[28].nic.mac1609_4 SentAcknowledgements 0
scalar World.node[28].nic.mac1609_4 RetriesExceeded 0
scalar World.node[28].nic.mac1609_4 SNIRLostPackets 3
scalar World.node[28].nic.mac1609_4 RXTXLostPackets 0
scalar World.node[28].nic.mac1609_4 TotalLostPackets 3
scalar World.node[28].nic.mac1609_4 DroppedPacketsInMac 0
scalar World.node[28].nic.mac1609_4 TooLittleTime 0
scalar World.node[28].nic.mac1609_4 TimesIntoBackoff 34
scalar World.node[28].nic.mac1609_4 SlotsBackoff 245
scalar World.node[28].nic.mac1609_4 NumInternalContention 0
scalar World.node[28].nic.mac1609_4 totalBusyTime 0.19169
scalar World.node[28].nic.mac1609_4 retriesExceeded:count 0
attr source org_car2x_veins_modules_mac_sigRetriesExceeded
scalar World.node[28].nic.mac1609_4 sentAcks:count 0
attr source org_car2x_veins_modules_mac_sigSentAck
scalar World.node[28].nic.mac1609_4 sentPackets:count 34
attr source org_car2x_veins_modules_mac_sigSentPacket
scalar World.node[28].nic.mac1609_4 collisions:count 0
attr source org_car2x_veins_modules_mac_sigCollision
scalar World.node[28].nic.mac1609_4 channelBusy:timeavg 0.091280952380954
attr source org_car2x_veins_modules_mac_sigChannelBusy
scalar World.node[20].appl.middleware.DenService transmission:count 34
attr source DenmSent
scalar World.node[20].appl.middleware.DenService reception:count 4823
attr source DenmReceived
scalar World.node[20].nic.phy80211p busyTime 0.086806518518512
scalar World.node[20].nic.mac1609_4 ReceivedUnicastPackets 0
scalar World.node[20].nic.mac1609_4 ReceivedBroadcasts 5538
scalar World.node[20].nic.mac1609_4 SentPackets 224
scalar World.node[20].nic.mac1609_4 SentAcknowledgements 0
scalar World.node[20].nic.mac1609_4 RetriesExceeded 0
scalar World.node[20].nic.mac1609_4 SNIRLostPackets 38
scalar World.node[20].nic.mac1609_4 RXTXLostPackets 0
scalar World.node[20].nic.mac1609_4 TotalLostPackets 38
scalar World.node[20].nic.mac1609_4 DroppedPacketsInMac 0
scalar World.node[20].nic.mac1609_4 TooLittleTime 0
scalar World.node[20].nic.mac1609_4 TimesIntoBackoff 224
scalar World.node[20].nic.mac1609_4 SlotsBackoff 1522
scalar World.node[20].nic.mac1609_4 NumInternalContention 0
scalar World.node[20].nic.mac1609_4 totalBusyTime 1.214512
scalar World.node[20].nic.mac1609_4 retriesExceeded:count 0
attr source org_car2x_veins_modules_mac_sigRetriesExceeded
scalar World.node[20].nic.mac1609_4 sentAcks:count 0
attr source org_car2x_veins_modules_mac_sigSentAck
scalar World.node[20].nic.mac1609_4 sentPackets:count 224
attr source org_car2x_veins_modules_mac_sigSentPacket
scalar World.node[20].nic.mac1609_4 collisions:count 0
attr source org_car2x_veins_modules_mac_sigCollision
scalar World.node[20].nic.mac1609_4 channelBusy:timeavg 0.089963851851845
attr source org_car2x_veins_modules_mac_sigChannelBusy
scalar World.node[14].appl.middleware.DenService transmission:count 90
attr source DenmSent
scalar World.node[14].appl.middleware.DenService reception:count 6944
attr source DenmReceived
scalar World.node[14].nic.phy80211p busyTime 0.078154618834074
scalar World.node[14].nic.mac1609_4 ReceivedUnicastPackets 0
scalar World.node[14].nic.mac1609_4 ReceivedBroadcasts 8215
scalar World.node[14].nic.mac1609_4 SentPackets 371
scalar World.node[14].nic.mac1609_4 SentAcknowledgements 0
scalar World.node[14].nic.mac1609_4 RetriesExceeded 0
scalar World.node[14].nic.mac1609_4 SNIRLostPackets 41
scalar World.node[14].nic.mac1609_4 RXTXLostPackets 0
scalar World.node[14].nic.mac1609_4 TotalLostPackets 41
scalar World.node[14].nic.mac1609_4 DroppedPacketsInMac 0
scalar World.node[14].nic.mac1609_4 TooLittleTime 0
scalar World.node[14].nic.mac1609_4 TimesIntoBackoff 371
scalar World.node[14].nic.mac1609_4 SlotsBackoff 1932
scalar World.node[14].nic.mac1609_4 NumInternalContention 0
scalar World.node[14].nic.mac1609_4 totalBusyTime 1.81511591253
scalar World.node[14].nic.mac1609_4 retriesExceeded:count 0
attr source org_car2x_veins_modules_mac_sigRetriesExceeded
scalar World.node[14].nic.mac1609_4 sentAcks:count 0
attr source org_car2x_veins_modules_mac_sigSentAck
scalar World.node[14].nic.mac1609_4 sentPackets:count 371
attr source org_car2x_veins_modules_mac_sigSentPacket
scalar World.node[14].nic.mac1609_4 collisions:count 0
attr source org_car2x_veins_modules_mac_sigCollision
scalar World.node[14].nic.mac1609_4 channelBusy:timeavg 0.081395332400441
attr source org_car2x_veins_modules_mac_sigChannelBusy
scalar World.node[40].appl.middleware.DenService transmission:count 0
attr source DenmSent
scalar World.node[40].appl.middleware.DenService reception:count 48
attr source DenmReceived
scalar World.node[40].nic.phy80211p busyTime 0.11616
scalar World.node[40].nic.mac1609_4 ReceivedUnicastPackets 0
scalar World.node[40].nic.mac1609_4 ReceivedBroadcasts 54
scalar World.node[40].nic.mac1609_4 SentPackets 1
scalar World.node[40].nic.mac1609_4 SentAcknowledgements 0
scalar World.node[40].nic.mac1609_4 RetriesExceeded 0
scalar World.node[40].nic.mac1609_4 SNIRLostPackets 0
scalar World.node[40].nic.mac1609_4 RXTXLostPackets 0
scalar World.node[40].nic.mac1609_4 TotalLostPackets 0
scalar World.node[40].nic.mac1609_4 DroppedPacketsInMac 0
scalar World.node[40].nic.mac1609_4 TooLittleTime 0
scalar World.node[40].nic.mac1609_4 TimesIntoBackoff 1
scalar World.node[40].nic.mac1609_4 SlotsBackoff 10
scalar World.node[40].nic.mac1609_4 NumInternalContention 0
scalar World.node[40].nic.mac1609_4 totalBusyTime 0.011817
scalar World.node[40].nic.mac1609_4 retriesExceeded:count 0
attr source org_car2x_veins_modules_mac_sigRetriesExceeded
scalar World.node[40].nic.mac1609_4 sentAcks:count 0
attr source org_car2x_veins_modules_mac_sigSentAck
scalar World.node[40].nic.mac1609_4 sentPackets:count 1
attr source org_car2x_veins_modules_mac_sigSentPacket
scalar World.node[40].nic.mac1609_4 collisions:count 0
attr source org_car2x_veins_modules_mac_sigCollision
scalar World.node[40].nic.mac1609_4 channelBusy:timeavg 0.11817
attr source org_car2x_veins_modules_mac_sigChannelBusy
scalar World.node[5].appl.middleware.DenService transmission:count 190
attr source DenmSent
scalar World.node[5].appl.middleware.DenService reception:count 11457
attr source DenmReceived
scalar World.node[5].nic.phy80211p busyTime 0.073735049504946
scalar World.node[5].nic.mac1609_4 ReceivedUnicastPackets 0
scalar World.node[5].nic.mac1609_4 ReceivedBroadcasts 14004
scalar World.node[5].nic.mac1609_4 SentPackets 593
scalar World.node[5].nic.mac1609_4 SentAcknowledgements 0
scalar World.node[5].nic.mac1609_4 RetriesExceeded 0
scalar World.node[5].nic.mac1609_4 SNIRLostPackets 53
scalar World.node[5].nic.mac1609_4 RXTXLostPackets 0
scalar World.node[5].nic.mac1609_4 TotalLostPackets 53
scalar World.node[5].nic.mac1609_4 DroppedPacketsInMac 0
scalar World.node[5].nic.mac1609_4 TooLittleTime 0
scalar World.node[5].nic.mac1609_4 TimesIntoBackoff 612
scalar World.node[5].nic.mac1609_4 SlotsBackoff 2499
scalar World.node[5].nic.mac1609_4 NumInternalContention 0
scalar World.node[5].nic.mac1609_4 totalBusyTime 3.095489987122
scalar World.node[5].nic.mac1609_4 retriesExceeded:count 0
attr source org_car2x_veins_modules_mac_sigRetriesExceeded
scalar World.node[5].nic.mac1609_4 sentAcks:count 0
attr source org_car2x_veins_modules_mac_sigSentAck
scalar World.node[5].nic.mac1609_4 sentPackets:count 593
attr source org_car2x_veins_modules_mac_sigSentPacket
scalar World.node[5].nic.mac1609_4 collisions:count 0
attr source org_car2x_veins_modules_mac_sigCollision
scalar World.node[5].nic.mac1609_4 channelBusy:timeavg 0.076621039285194
attr source org_car2x_veins_modules_mac_sigChannelBusy
scalar World.node[27].appl.middleware.DenService transmission:count 0
attr source DenmSent
scalar World.node[27].appl.middleware.DenService reception:count 10929
attr source DenmReceived
scalar World.node[27].nic.phy80211p busyTime 0.11100278260869
scalar World.node[27].nic.mac1609_4 ReceivedUnicastPackets 0
scalar World.node[27].nic.mac1609_4 ReceivedBroadcasts 12188
scalar World.node[27].nic.mac1609_4 SentPackets 382
scalar World.node[27].nic.mac1609_4 SentAcknowledgements 0
scalar World.node[27].nic.mac1609_4 RetriesExceeded 0
scalar World.node[27].nic.mac1609_4 SNIRLostPackets 30
scalar World.node[27].nic.mac1609_4 RXTXLostPackets 0
scalar World.node[27].nic.mac1609_4 TotalLostPackets 30
scalar World.node[27].nic.mac1609_4 DroppedPacketsInMac 0
scalar World.node[27].nic.mac1609_4 TooLittleTime 0
scalar World.node[27].nic.mac1609_4 TimesIntoBackoff 382
scalar World.node[27].nic.mac1609_4 SlotsBackoff 2806
scalar World.node[27].nic.mac1609_4 NumInternalContention 0
scalar World.node[27].nic.mac1609_4 totalBusyTime 2.631718755856
scalar World.node[27].nic.mac1609_4 retriesExceeded:count 0
attr source org_car2x_veins_modules_mac_sigRetriesExceeded
scalar World.node[27].nic.mac1609_4 sentAcks:count 0
attr source org_car2x_veins_modules_mac_sigSentAck
scalar World.node[27].nic.mac1609_4 sentPackets:count 382
attr source org_car2x_veins_modules_mac_sigSentPacket
scalar World.node[27].nic.mac1609_4 collisions:count 0
attr source org_car2x_veins_modules_mac_sigCollision
scalar World.node[27].nic.mac1609_4 channelBusy:timeavg 0.11442255460243
attr source org_car2x_veins_modules_mac_sigChannelBusy
scalar World.node[15].appl.middleware.DenService transmission:count 269
attr source DenmSent
scalar World.node[15].appl.middleware.DenService reception:count 15259
attr source DenmReceived
scalar World.node[15].nic.phy80211p busyTime 0.099219459459455
scalar World.node[15].nic.mac1609_4 ReceivedUnicastPackets 0
scalar World.node[15].nic.mac1609_4 ReceivedBroadcasts 17443
scalar World.node[15].nic.mac1609_4 SentPackets 616
scalar World.node[15].nic.mac1609_4 SentAcknowledgements 0
scalar World.node[15].nic.mac1609_4 RetriesExceeded 0
scalar World.node[15].nic.mac1609_4 SNIRLostPackets 53
scalar World.node[15].nic.mac1609_4 RXTXLostPackets 0
scalar World.node[15].nic.mac1609_4 TotalLostPackets 53
scalar World.node[15].nic.mac1609_4 DroppedPacketsInMac 0
scalar World.node[15].nic.mac1609_4 TooLittleTime 0
scalar World.node[15].nic.mac1609_4 TimesIntoBackoff 1232
scalar World.node[15].nic.mac1609_4 SlotsBackoff 5816
scalar World.node[15].nic.mac1609_4 NumInternalContention 0
scalar World.node[15].nic.mac1609_4 totalBusyTime 3.792633388872
scalar World.node[15].nic.mac1609_4 retriesExceeded:count 0
attr source org_car2x_veins_modules_mac_sigRetriesExceeded
scalar World.node[15].nic.mac1609_4 sentAcks:count 0
attr source org_car2x_veins_modules_mac_sigSentAck
scalar World.node[15].nic.mac1609_4 sentPackets:count 616
attr source org_car2x_veins_modules_mac_sigSentPacket
scalar World.node[15].nic.mac1609_4 collisions:count 0
attr source org_car2x_veins_modules_mac_sigCollision
scalar World.node[15].nic.mac1609_4 channelBusy:timeavg 0.10250360510464
attr source org_car2x_veins_modules_mac_sigChannelBusy
scalar World.node[42].appl.middleware.DenService transmission:count 1
attr source DenmSent
scalar World.node[42].appl.middleware.DenService reception:count 5980
attr source DenmReceived
scalar World.node[42].nic.phy80211p busyTime 0.13477019607842
scalar World.node[42].nic.mac1609_4 ReceivedUnicastPackets 0
scalar World.node[42].nic.mac1609_4 ReceivedBroadcasts 6606
scalar World.node[42].nic.mac1609_4 SentPackets 169
scalar World.node[42].nic.mac1609_4 SentAcknowledgements 0
scalar World.node[42].nic.mac1609_4 RetriesExceeded 0
scalar World.node[42].nic.mac1609_4 SNIRLostPackets 5
scalar World.node[42].nic.mac1609_4 RXTXLostPackets 0
scalar World.node[42].nic.mac1609_4 TotalLostPackets 5
scalar World.node[42].nic.mac1609_4 DroppedPacketsInMac 0
scalar World.node[42].nic.mac1609_4 TooLittleTime 0
scalar World.node[42].nic.mac1609_4 TimesIntoBackoff 169
scalar World.node[42].nic.mac1609_4 SlotsBackoff 1183
scalar World.node[42].nic.mac1609_4 NumInternalContention 0
scalar World.node[42].nic.mac1609_4 totalBusyTime 1.410569
scalar World.node[42].nic.mac1609_4 retriesExceeded:count 0
attr source org_car2x_veins_modules_mac_sigRetriesExceeded
scalar World.node[42].nic.mac1609_4 sentAcks:count 0
attr source org_car2x_veins_modules_mac_sigSentAck
scalar World.node[42].nic.mac1609_4 sentPackets:count 169
attr source org_car2x_veins_modules_mac_sigSentPacket
scalar World.node[42].nic.mac1609_4 collisions:count 0
attr source org_car2x_veins_modules_mac_sigCollision
scalar World.node[42].nic.mac1609_4 channelBusy:timeavg 0.13829107843136
attr source org_car2x_veins_modules_mac_sigChannelBusy
scalar World.node[1].appl.middleware.DenService transmission:count 310
attr source DenmSent
scalar World.node[1].appl.middleware.DenService reception:count 18544
attr source DenmReceived
scalar World.node[1].nic.phy80211p busyTime 0.084371278458867
scalar World.node[1].nic.mac1609_4 ReceivedUnicastPackets 0
scalar World.node[1].nic.mac1609_4 ReceivedBroadcasts 22806
scalar World.node[1].nic.mac1609_4 SentPackets 812
scalar World.node[1].nic.mac1609_4 SentAcknowledgements 0
scalar World.node[1].nic.mac1609_4 RetriesExceeded 0
scalar World.node[1].nic.mac1609_4 SNIRLostPackets 77
scalar World.node[1].nic.mac1609_4 RXTXLostPackets 0
scalar World.node[1].nic.mac1609_4 TotalLostPackets 77
scalar World.node[1].nic.mac1609_4 DroppedPacketsInMac 0
scalar World.node[1].nic.mac1609_4 TooLittleTime 0
scalar World.node[1].nic.mac1609_4 TimesIntoBackoff 812
scalar World.node[1].nic.mac1609_4 SlotsBackoff 3025
scalar World.node[1].nic.mac1609_4 NumInternalContention 0
scalar World.node[1].nic.mac1609_4 totalBusyTime 4.976148
scalar World.node[1].nic.mac1609_4 retriesExceeded:count 0
attr source org_car2x_veins_modules_mac_sigRetriesExceeded
scalar World.node[1].nic.mac1609_4 sentAcks:count 0
attr source org_car2x_veins_modules_mac_sigSentAck
scalar World.node[1].nic.mac1609_4 sentPackets:count 812
attr source org_car2x_veins_modules_mac_sigSentPacket
scalar World.node[1].nic.mac1609_4 collisions:count 0
attr source org_car2x_veins_modules_mac_sigCollision
scalar World.node[1].nic.mac1609_4 channelBusy:timeavg 0.08714795096325
attr source org_car2x_veins_modules_mac_sigChannelBusy
scalar World.node[3].appl.middleware.DenService transmission:count 453
attr source DenmSent
scalar World.node[3].appl.middleware.DenService reception:count 19276
attr source DenmReceived
scalar World.node[3].nic.phy80211p busyTime 0.086573718411575
scalar World.node[3].nic.mac1609_4 ReceivedUnicastPackets 0
scalar World.node[3].nic.mac1609_4 ReceivedBroadcasts 22743
scalar World.node[3].nic.mac1609_4 SentPackets 812
scalar World.node[3].nic.mac1609_4 SentAcknowledgements 0
scalar World.node[3].nic.mac1609_4 RetriesExceeded 0
scalar World.node[3].nic.mac1609_4 SNIRLostPackets 63
scalar World.node[3].nic.mac1609_4 RXTXLostPackets 0
scalar World.node[3].nic.mac1609_4 TotalLostPackets 63
scalar World.node[3].nic.mac1609_4 DroppedPacketsInMac 0
scalar World.node[3].nic.mac1609_4 TooLittleTime 0
scalar World.node[3].nic.mac1609_4 TimesIntoBackoff 1593
scalar World.node[3].nic.mac1609_4 SlotsBackoff 6015
scalar World.node[3].nic.mac1609_4 NumInternalContention 0
scalar World.node[3].nic.mac1609_4 totalBusyTime 4.954652
scalar World.node[3].nic.mac1609_4 retriesExceeded:count 0
attr source org_car2x_veins_modules_mac_sigRetriesExceeded
scalar World.node[3].nic.mac1609_4 sentAcks:count 0
attr source org_car2x_veins_modules_mac_sigSentAck
scalar World.node[3].nic.mac1609_4 sentPackets:count 812
attr source org_car2x_veins_modules_mac_sigSentPacket
scalar World.node[3].nic.mac1609_4 collisions:count 0
attr source org_car2x_veins_modules_mac_sigCollision
scalar World.node[3].nic.mac1609_4 channelBusy:timeavg 0.089434151624576
attr source org_car2x_veins_modules_mac_sigChannelBusy
scalar World.node[17].appl.middleware.DenService transmission:count 326
attr source DenmSent
scalar World.node[17].appl.middleware.DenService reception:count 19766
attr source DenmReceived
scalar World.node[17].nic.phy80211p busyTime 0.11057405152228
scalar World.node[17].nic.mac1609_4 ReceivedUnicastPackets 0
scalar World.node[17].nic.mac1609_4 ReceivedBroadcasts 22479
scalar World.node[17].nic.mac1609_4 SentPackets 711
scalar World.node[17].nic.mac1609_4 SentAcknowledgements 0
scalar World.node[17].nic.mac1609_4 RetriesExceeded 0
scalar World.node[17].nic.mac1609_4 SNIRLostPackets 99
scalar World.node[17].nic.mac1609_4 RXTXLostPackets 0
scalar World.node[17].nic.mac1609_4 TotalLostPackets 99
scalar World.node[17].nic.mac1609_4 DroppedPacketsInMac 0
scalar World.node[17].nic.mac1609_4 TooLittleTime 0
scalar World.node[17].nic.mac1609_4 TimesIntoBackoff 787
scalar World.node[17].nic.mac1609_4 SlotsBackoff 3579
scalar World.node[17].nic.mac1609_4 NumInternalContention 0
scalar World.node[17].nic.mac1609_4 totalBusyTime 4.85548778626
scalar World.node[17].nic.mac1609_4 retriesExceeded:count 0
attr source org_car2x_veins_modules_mac_sigRetriesExceeded
scalar World.node[17].nic.mac1609_4 sentAcks:count 0
attr source org_car2x_veins_modules_mac_sigSentAck
scalar World.node[17].nic.mac1609_4 sentPackets:count 711
attr source org_car2x_veins_modules_mac_sigSentPacket
scalar World.node[17].nic.mac1609_4 collisions:count 0
attr source org_car2x_veins_modules_mac_sigCollision
scalar World.node[17].nic.mac1609_4 channelBusy:timeavg 0.11371165775788
attr source org_car2x_veins_modules_mac_sigChannelBusy
scalar World.node[0].appl.middleware.DenService transmission:count 0
attr source DenmSent
scalar World.node[0].appl.middleware.DenService reception:count 22639
attr source DenmReceived
scalar World.node[0].nic.phy80211p busyTime 0.086991067961203
scalar World.node[0].nic.mac1609_4 ReceivedUnicastPackets 0
scalar World.node[0].nic.mac1609_4 ReceivedBroadcasts 25548
scalar World.node[0].nic.mac1609_4 SentPackets 884
scalar World.node[0].nic.mac1609_4 SentAcknowledgements 0
scalar World.node[0].nic.mac1609_4 RetriesExceeded 0
scalar World.node[0].nic.mac1609_4 SNIRLostPackets 104
scalar World.node[0].nic.mac1609_4 RXTXLostPackets 22
scalar World.node[0].nic.mac1609_4 TotalLostPackets 126
scalar World.node[0].nic.mac1609_4 DroppedPacketsInMac 0
scalar World.node[0].nic.mac1609_4 TooLittleTime 0
scalar World.node[0].nic.mac1609_4 TimesIntoBackoff 1064
scalar World.node[0].nic.mac1609_4 SlotsBackoff 8223
scalar World.node[0].nic.mac1609_4 NumInternalContention 0
scalar World.node[0].nic.mac1609_4 totalBusyTime 5.556172101231
scalar World.node[0].nic.mac1609_4 retriesExceeded:count 0
attr source org_car2x_veins_modules_mac_sigRetriesExceeded
scalar World.node[0].nic.mac1609_4 sentAcks:count 0
attr source org_car2x_veins_modules_mac_sigSentAck
scalar World.node[0].nic.mac1609_4 sentPackets:count 884
attr source org_car2x_veins_modules_mac_sigSentPacket
scalar World.node[0].nic.mac1609_4 collisions:count 0
attr source org_car2x_veins_modules_mac_sigCollision
scalar World.node[0].nic.mac1609_4 channelBusy:timeavg 0.089905697430964
attr source org_car2x_veins_modules_mac_sigChannelBusy
scalar World.node[37].appl.middleware.DenService transmission:count 209
attr source DenmSent
scalar World.node[37].appl.middleware.DenService reception:count 19011
attr source DenmReceived
scalar World.node[37].nic.phy80211p busyTime 0.14207303225808
scalar World.node[37].nic.mac1609_4 ReceivedUnicastPackets 0
scalar World.node[37].nic.mac1609_4 ReceivedBroadcasts 21134
scalar World.node[37].nic.mac1609_4 SentPackets 516
scalar World.node[37].nic.mac1609_4 SentAcknowledgements 0
scalar World.node[37].nic.mac1609_4 RetriesExceeded 0
scalar World.node[37].nic.mac1609_4 SNIRLostPackets 51
scalar World.node[37].nic.mac1609_4 RXTXLostPackets 0
scalar World.node[37].nic.mac1609_4 TotalLostPackets 51
scalar World.node[37].nic.mac1609_4 DroppedPacketsInMac 0
scalar World.node[37].nic.mac1609_4 TooLittleTime 0
scalar World.node[37].nic.mac1609_4 TimesIntoBackoff 561
scalar World.node[37].nic.mac1609_4 SlotsBackoff 2686
scalar World.node[37].nic.mac1609_4 NumInternalContention 0
scalar World.node[37].nic.mac1609_4 totalBusyTime 4.504332
scalar World.node[37].nic.mac1609_4 retriesExceeded:count 0
attr source org_car2x_veins_modules_mac_sigRetriesExceeded
scalar World.node[37].nic.mac1609_4 sentAcks:count 0
attr source org_car2x_veins_modules_mac_sigSentAck
scalar World.node[37].nic.mac1609_4 sentPackets:count 516
attr source org_car2x_veins_modules_mac_sigSentPacket
scalar World.node[37].nic.mac1609_4 collisions:count 0
attr source org_car2x_veins_modules_mac_sigCollision
scalar World.node[37].nic.mac1609_4 channelBusy:timeavg 0.14530103225809
attr source org_car2x_veins_modules_mac_sigChannelBusy
scalar World.node[24].appl.middleware.DenService transmission:count 0
attr source DenmSent
scalar World.node[24].appl.middleware.DenService reception:count 25403
attr source DenmReceived
scalar World.node[24].nic.phy80211p busyTime 0.12930842105271
scalar World.node[24].nic.mac1609_4 ReceivedUnicastPackets 0
scalar World.node[24].nic.mac1609_4 ReceivedBroadcasts 27935
scalar World.node[24].nic.mac1609_4 SentPackets 759
scalar World.node[24].nic.mac1609_4 SentAcknowledgements 0
scalar World.node[24].nic.mac1609_4 RetriesExceeded 0
scalar World.node[24].nic.mac1609_4 SNIRLostPackets 437
scalar World.node[24].nic.mac1609_4 RXTXLostPackets 16
scalar World.node[24].nic.mac1609_4 TotalLostPackets 453
scalar World.node[24].nic.mac1609_4 DroppedPacketsInMac 0
scalar World.node[24].nic.mac1609_4 TooLittleTime 0
scalar World.node[24].nic.mac1609_4 TimesIntoBackoff 943
scalar World.node[24].nic.mac1609_4 SlotsBackoff 6776
scalar World.node[24].nic.mac1609_4 NumInternalContention 0
scalar World.node[24].nic.mac1609_4 totalBusyTime 6.018073363203
scalar World.node[24].nic.mac1609_4 retriesExceeded:count 0
attr source org_car2x_veins_modules_mac_sigRetriesExceeded
scalar World.node[24].nic.mac1609_4 sentAcks:count 0
attr source org_car2x_veins_modules_mac_sigSentAck
scalar World.node[24].nic.mac1609_4 sentPackets:count 759
attr source org_car2x_veins_modules_mac_sigSentPacket
scalar World.node[24].nic.mac1609_4 collisions:count 0
attr source org_car2x_veins_modules_mac_sigCollision
scalar World.node[24].nic.mac1609_4 channelBusy:timeavg 0.13197632727788
attr source org_car2x_veins_modules_mac_sigChannelBusy
scalar World.node[32].appl.middleware.DenService transmission:count 285
attr source DenmSent
scalar World.node[32].appl.middleware.DenService reception:count 23457
attr source DenmReceived
scalar World.node[32].nic.phy80211p busyTime 0.1399890155441
scalar World.node[32].nic.mac1609_4 ReceivedUnicastPackets 0
scalar World.node[32].nic.mac1609_4 ReceivedBroadcasts 25830
scalar World.node[32].nic.mac1609_4 SentPackets 642
scalar World.node[32].nic.mac1609_4 SentAcknowledgements 0
scalar World.node[32].nic.mac1609_4 RetriesExceeded 0
scalar World.node[32].nic.mac1609_4 SNIRLostPackets 187
scalar World.node[32].nic.mac1609_4 RXTXLostPackets 20
scalar World.node[32].nic.mac1609_4 TotalLostPackets 207
scalar World.node[32].nic.mac1609_4 DroppedPacketsInMac 0
scalar World.node[32].nic.mac1609_4 TooLittleTime 0
scalar World.node[32].nic.mac1609_4 TimesIntoBackoff 724
scalar World.node[32].nic.mac1609_4 SlotsBackoff 3325
scalar World.node[32].nic.mac1609_4 NumInternalContention 0
scalar World.node[32].nic.mac1609_4 totalBusyTime 5.506571017645
scalar World.node[32].nic.mac1609_4 retriesExceeded:count 0
attr source org_car2x_veins_modules_mac_sigRetriesExceeded
scalar World.node[32].nic.mac1609_4 sentAcks:count 0
attr source org_car2x_veins_modules_mac_sigSentAck
scalar World.node[32].nic.mac1609_4 sentPackets:count 642
attr source org_car2x_veins_modules_mac_sigSentPacket
scalar World.node[32].nic.mac1609_4 collisions:count 0
attr source org_car2x_veins_modules_mac_sigCollision
scalar World.node[32].nic.mac1609_4 channelBusy:timeavg 0.14265728024994
attr source org_car2x_veins_modules_mac_sigChannelBusy
scalar World.node[61].appl.middleware.DenService transmission:count 2
attr source DenmSent
scalar World.node[61].appl.middleware.DenService reception:count 7160
attr source DenmReceived
scalar World.node[61].nic.phy80211p busyTime 0.1617631067961
scalar World.node[61].nic.mac1609_4 ReceivedUnicastPackets 0
scalar World.node[61].nic.mac1609_4 ReceivedBroadcasts 7721
scalar World.node[61].nic.mac1609_4 SentPackets 171
scalar World.node[61].nic.mac1609_4 SentAcknowledgements 0
scalar World.node[61].nic.mac1609_4 RetriesExceeded 0
scalar World.node[61].nic.mac1609_4 SNIRLostPackets 358
scalar World.node[61].nic.mac1609_4 RXTXLostPackets 11
scalar World.node[61].nic.mac1609_4 TotalLostPackets 369
scalar World.node[61].nic.mac1609_4 DroppedPacketsInMac 0
scalar World.node[61].nic.mac1609_4 TooLittleTime 0
scalar World.node[61].nic.mac1609_4 TimesIntoBackoff 342
scalar World.node[61].nic.mac1609_4 SlotsBackoff 2539
scalar World.node[61].nic.mac1609_4 NumInternalContention 0
scalar World.node[61].nic.mac1609_4 totalBusyTime 1.66701912751
scalar World.node[61].nic.mac1609_4 retriesExceeded:count 0
attr source org_car2x_veins_modules_mac_sigRetriesExceeded
scalar World.node[61].nic.mac1609_4 sentAcks:count 0
attr source org_car2x_veins_modules_mac_sigSentAck
scalar World.node[61].nic.mac1609_4 sentPackets:count 171
attr source org_car2x_veins_modules_mac_sigSentPacket
scalar World.node[61].nic.mac1609_4 collisions:count 0
attr source org_car2x_veins_modules_mac_sigCollision
scalar World.node[61].nic.mac1609_4 channelBusy:timeavg 0.16185046888076
attr source org_car2x_veins_modules_mac_sigChannelBusy
scalar World.node[10].appl.middleware.DenService transmission:count 530
attr source DenmSent
scalar World.node[10].appl.middleware.DenService reception:count 30539
attr source DenmReceived
scalar World.node[10].nic.phy80211p busyTime 0.11476729001594
scalar World.node[10].nic.mac1609_4 ReceivedUnicastPackets 0
scalar World.node[10].nic.mac1609_4 ReceivedBroadcasts 34452
scalar World.node[10].nic.mac1609_4 SentPackets 1030
scalar World.node[10].nic.mac1609_4 SentAcknowledgements 0
scalar World.node[10].nic.mac1609_4 RetriesExceeded 0
scalar World.node[10].nic.mac1609_4 SNIRLostPackets 243
scalar World.node[10].nic.mac1609_4 RXTXLostPackets 0
scalar World.node[10].nic.mac1609_4 TotalLostPackets 243
scalar World.node[10].nic.mac1609_4 DroppedPacketsInMac 0
scalar World.node[10].nic.mac1609_4 TooLittleTime 0
scalar World.node[10].nic.mac1609_4 TimesIntoBackoff 1035
scalar World.node[10].nic.mac1609_4 SlotsBackoff 4157
scalar World.node[10].nic.mac1609_4 NumInternalContention 0
scalar World.node[10].nic.mac1609_4 totalBusyTime 7.416289877366
scalar World.node[10].nic.mac1609_4 retriesExceeded:count 0
attr source org_car2x_veins_modules_mac_sigRetriesExceeded
scalar World.node[10].nic.mac1609_4 sentAcks:count 0
attr source org_car2x_veins_modules_mac_sigSentAck
scalar World.node[10].nic.mac1609_4 sentPackets:count 1030
attr source org_car2x_veins_modules_mac_sigSentPacket
scalar World.node[10].nic.mac1609_4 collisions:count 0
attr source org_car2x_veins_modules_mac_sigCollision
scalar World.node[10].nic.mac1609_4 channelBusy:timeavg 0.11753304524997
attr source org_car2x_veins_modules_mac_sigChannelBusy
scalar World.node[9].appl.middleware.DenService transmission:count 546
attr source DenmSent
scalar World.node[9].appl.middleware.DenService reception:count 30888
attr source DenmReceived
scalar World.node[9].nic.phy80211p busyTime 0.11375876352405
scalar World.node[9].nic.mac1609_4 ReceivedUnicastPackets 0
scalar World.node[9].nic.mac1609_4 ReceivedBroadcasts 34997
scalar World.node[9].nic.mac1609_4 SentPackets 1054
scalar World.node[9].nic.mac1609_4 SentAcknowledgements 0
scalar World.node[9].nic.mac1609_4 RetriesExceeded 0
scalar World.node[9].nic.mac1609_4 SNIRLostPackets 257
scalar World.node[9].nic.mac1609_4 RXTXLostPackets 0
scalar World.node[9].nic.mac1609_4 TotalLostPackets 257
scalar World.node[9].nic.mac1609_4 DroppedPacketsInMac 0
scalar World.node[9].nic.mac1609_4 TooLittleTime 0
scalar World.node[9].nic.mac1609_4 TimesIntoBackoff 1981
scalar World.node[9].nic.mac1609_4 SlotsBackoff 7649
scalar World.node[9].nic.mac1609_4 NumInternalContention 0
scalar World.node[9].nic.mac1609_4 totalBusyTime 7.533041332082
scalar World.node[9].nic.mac1609_4 retriesExceeded:count 0
attr source org_car2x_veins_modules_mac_sigRetriesExceeded
scalar World.node[9].nic.mac1609_4 sentAcks:count 0
attr source org_car2x_veins_modules_mac_sigSentAck
scalar World.node[9].nic.mac1609_4 sentPackets:count 1054
attr source org_car2x_veins_modules_mac_sigSentPacket
scalar World.node[9].nic.mac1609_4 collisions:count 0
attr source org_car2x_veins_modules_mac_sigCollision
scalar World.node[9].nic.mac1609_4 channelBusy:timeavg 0.11643100176445
attr source org_car2x_veins_modules_mac_sigChannelBusy
scalar World.node[26].appl.middleware.DenService transmission:count 170
attr source DenmSent
scalar World.node[26].appl.middleware.DenService reception:count 23761
attr source DenmReceived
scalar World.node[26].nic.phy80211p busyTime 0.11483800829881
scalar World.node[26].nic.mac1609_4 ReceivedUnicastPackets 0
scalar World.node[26].nic.mac1609_4 ReceivedBroadcasts 26585
scalar World.node[26].nic.mac1609_4 SentPackets 802
scalar World.node[26].nic.mac1609_4 SentAcknowledgements 0
scalar World.node[26].nic.mac1609_4 RetriesExceeded 0
scalar World.node[26].nic.mac1609_4 SNIRLostPackets 74
scalar World.node[26].nic.mac1609_4 RXTXLostPackets 0
scalar World.node[26].nic.mac1609_4 TotalLostPackets 74
scalar World.node[26].nic.mac1609_4 DroppedPacketsInMac 0
scalar World.node[26].nic.mac1609_4 TooLittleTime 0
scalar World.node[26].nic.mac1609_4 TimesIntoBackoff 802
scalar World.node[26].nic.mac1609_4 SlotsBackoff 3425
scalar World.node[26].nic.mac1609_4 NumInternalContention 0
scalar World.node[26].nic.mac1609_4 totalBusyTime 5.689978501331
scalar World.node[26].nic.mac1609_4 retriesExceeded:count 0
attr source org_car2x_veins_modules_mac_sigRetriesExceeded
scalar World.node[26].nic.mac1609_4 sentAcks:count 0
attr source org_car2x_veins_modules_mac_sigSentAck
scalar World.node[26].nic.mac1609_4 sentPackets:count 802
attr source org_car2x_veins_modules_mac_sigSentPacket
scalar World.node[26].nic.mac1609_4 collisions:count 0
attr source org_car2x_veins_modules_mac_sigCollision
scalar World.node[26].nic.mac1609_4 channelBusy:timeavg 0.1180493465007
attr source org_car2x_veins_modules_mac_sigChannelBusy
scalar World.node[8].appl.middleware.DenService transmission:count 100
attr source DenmSent
scalar World.node[8].appl.middleware.DenService reception:count 32348
attr source DenmReceived
scalar World.node[8].nic.phy80211p busyTime 0.11458180758028
scalar World.node[8].nic.mac1609_4 ReceivedUnicastPackets 0
scalar World.node[8].nic.mac1609_4 ReceivedBroadcasts 37262
scalar World.node[8].nic.mac1609_4 SentPackets 1108
scalar World.node[8].nic.mac1609_4 SentAcknowledgements 0
scalar World.node[8].nic.mac1609_4 RetriesExceeded 0
scalar World.node[8].nic.mac1609_4 SNIRLostPackets 428
scalar World.node[8].nic.mac1609_4 RXTXLostPackets 0
scalar World.node[8].nic.mac1609_4 TotalLostPackets 428
scalar World.node[8].nic.mac1609_4 DroppedPacketsInMac 0
scalar World.node[8].nic.mac1609_4 TooLittleTime 0
scalar World.node[8].nic.mac1609_4 TimesIntoBackoff 1108
scalar World.node[8].nic.mac1609_4 SlotsBackoff 4621
scalar World.node[8].nic.mac1609_4 NumInternalContention 0
scalar World.node[8].nic.mac1609_4 totalBusyTime 8.012013942265
scalar World.node[8].nic.mac1609_4 retriesExceeded:count 0
attr source org_car2x_veins_modules_mac_sigRetriesExceeded
scalar World.node[8].nic.mac1609_4 sentAcks:count 0
attr source org_car2x_veins_modules_mac_sigSentAck
scalar World.node[8].nic.mac1609_4 sentPackets:count 1108
attr source org_car2x_veins_modules_mac_sigSentPacket
scalar World.node[8].nic.mac1609_4 collisions:count 0
attr source org_car2x_veins_modules_mac_sigCollision
scalar World.node[8].nic.mac1609_4 channelBusy:timeavg 0.11679320615557
attr source org_car2x_veins_modules_mac_sigChannelBusy
scalar World.node[2].appl.middleware.DenService transmission:count 649
attr source DenmSent
scalar World.node[2].appl.middleware.DenService reception:count 33217
attr source DenmReceived
scalar World.node[2].nic.phy80211p busyTime 0.10653994666676
scalar World.node[2].nic.mac1609_4 ReceivedUnicastPackets 0
scalar World.node[2].nic.mac1609_4 ReceivedBroadcasts 37661
scalar World.node[2].nic.mac1609_4 SentPackets 1132
scalar World.node[2].nic.mac1609_4 SentAcknowledgements 0
scalar World.node[2].nic.mac1609_4 RetriesExceeded 0
scalar World.node[2].nic.mac1609_4 SNIRLostPackets 602
scalar World.node[2].nic.mac1609_4 RXTXLostPackets 0
scalar World.node[2].nic.mac1609_4 TotalLostPackets 602
scalar World.node[2].nic.mac1609_4 DroppedPacketsInMac 0
scalar World.node[2].nic.mac1609_4 TooLittleTime 0
scalar World.node[2].nic.mac1609_4 TimesIntoBackoff 1132
scalar World.node[2].nic.mac1609_4 SlotsBackoff 4157
scalar World.node[2].nic.mac1609_4 NumInternalContention 0
scalar World.node[2].nic.mac1609_4 totalBusyTime 8.145509197088
scalar World.node[2].nic.mac1609_4 retriesExceeded:count 0
attr source org_car2x_veins_modules_mac_sigRetriesExceeded
scalar World.node[2].nic.mac1609_4 sentAcks:count 0
attr source org_car2x_veins_modules_mac_sigSentAck
scalar World.node[2].nic.mac1609_4 sentPackets:count 1132
attr source org_car2x_veins_modules_mac_sigSentPacket
scalar World.node[2].nic.mac1609_4 collisions:count 0
attr source org_car2x_veins_modules_mac_sigCollision
scalar World.node[2].nic.mac1609_4 channelBusy:timeavg 0.10860736870794
attr source org_car2x_veins_modules_mac_sigChannelBusy
scalar World.node[11].appl.middleware.DenService transmission:count 0
attr source DenmSent
scalar World.node[11].appl.middleware.DenService reception:count 33896
attr source DenmReceived
scalar World.node[11].nic.phy80211p busyTime 0.11917645645657
scalar World.node[11].nic.mac1609_4 ReceivedUnicastPackets 0
scalar World.node[11].nic.mac1609_4 ReceivedBroadcasts 37500
scalar World.node[11].nic.mac1609_4 SentPackets 1105
scalar World.node[11].nic.mac1609_4 SentAcknowledgements 0
scalar World.node[11].nic.mac1609_4 RetriesExceeded 0
scalar World.node[11].nic.mac1609_4 SNIRLostPackets 701
scalar World.node[11].nic.mac1609_4 RXTXLostPackets 11
scalar World.node[11].nic.mac1609_4 TotalLostPackets 712
scalar World.node[11].nic.mac1609_4 DroppedPacketsInMac 0
scalar World.node[11].nic.mac1609_4 TooLittleTime 0
scalar World.node[11].nic.mac1609_4 TimesIntoBackoff 1564
scalar World.node[11].nic.mac1609_4 SlotsBackoff 11443
scalar World.node[11].nic.mac1609_4 NumInternalContention 0
scalar World.node[11].nic.mac1609_4 totalBusyTime 8.106433
scalar World.node[11].nic.mac1609_4 retriesExceeded:count 0
attr source org_car2x_veins_modules_mac_sigRetriesExceeded
scalar World.node[11].nic.mac1609_4 sentAcks:count 0
attr source org_car2x_veins_modules_mac_sigSentAck
scalar World.node[11].nic.mac1609_4 sentPackets:count 1105
attr source org_car2x_veins_modules_mac_sigSentPacket
scalar World.node[11].nic.mac1609_4 collisions:count 0
attr source org_car2x_veins_modules_mac_sigCollision
scalar World.node[11].nic.mac1609_4 channelBusy:timeavg 0.12171894137572
attr source org_car2x_veins_modules_mac_sigChannelBusy
scalar World.node[62].appl.middleware.DenService transmission:count 68
attr source DenmSent
scalar World.node[62].appl.middleware.DenService reception:count 12742
attr source DenmReceived
scalar World.node[62].nic.phy80211p busyTime 0.16934153846153
scalar World.node[62].nic.mac1609_4 ReceivedUnicastPackets 0
scalar World.node[62].nic.mac1609_4 ReceivedBroadcasts 13787
scalar World.node[62].nic.mac1609_4 SentPackets 281
scalar World.node[62].nic.mac1609_4 SentAcknowledgements 0
scalar World.node[62].nic.mac1609_4 RetriesExceeded 0
scalar World.node[62].nic.mac1609_4 SNIRLostPackets 105
scalar World.node[62].nic.mac1609_4 RXTXLostPackets 1
scalar World.node[62].nic.mac1609_4 TotalLostPackets 106
scalar World.node[62].nic.mac1609_4 DroppedPacketsInMac 0
scalar World.node[62].nic.mac1609_4 TooLittleTime 0
scalar World.node[62].nic.mac1609_4 TimesIntoBackoff 291
scalar World.node[62].nic.mac1609_4 SlotsBackoff 1821
scalar World.node[62].nic.mac1609_4 NumInternalContention 0
scalar World.node[62].nic.mac1609_4 totalBusyTime 2.903249872802
scalar World.node[62].nic.mac1609_4 retriesExceeded:count 0
attr source org_car2x_veins_modules_mac_sigRetriesExceeded
scalar World.node[62].nic.mac1609_4 sentAcks:count 0
attr source org_car2x_veins_modules_mac_sigSentAck
scalar World.node[62].nic.mac1609_4 sentPackets:count 281
attr source org_car2x_veins_modules_mac_sigSentPacket
scalar World.node[62].nic.mac1609_4 collisions:count 0
attr source org_car2x_veins_modules_mac_sigCollision
scalar World.node[62].nic.mac1609_4 channelBusy:timeavg 0.1717929835536
attr source org_car2x_veins_modules_mac_sigChannelBusy
scalar World.node[34].appl.middleware.DenService transmission:count 356
attr source DenmSent
scalar World.node[34].appl.middleware.DenService reception:count 29790
attr source DenmReceived
scalar World.node[34].nic.phy80211p busyTime 0.15069846827145
scalar World.node[34].nic.mac1609_4 ReceivedUnicastPackets 0
scalar World.node[34].nic.mac1609_4 ReceivedBroadcasts 32920
scalar World.node[34].nic.mac1609_4 SentPackets 761
scalar World.node[34].nic.mac1609_4 SentAcknowledgements 0
scalar World.node[34].nic.mac1609_4 RetriesExceeded 0
scalar World.node[34].nic.mac1609_4 SNIRLostPackets 316
scalar World.node[34].nic.mac1609_4 RXTXLostPackets 0
scalar World.node[34].nic.mac1609_4 TotalLostPackets 316
scalar World.node[34].nic.mac1609_4 DroppedPacketsInMac 0
scalar World.node[34].nic.mac1609_4 TooLittleTime 0
scalar World.node[34].nic.mac1609_4 TimesIntoBackoff 761
scalar World.node[34].nic.mac1609_4 SlotsBackoff 3394
scalar World.node[34].nic.mac1609_4 NumInternalContention 0
scalar World.node[34].nic.mac1609_4 totalBusyTime 6.989785202406
scalar World.node[34].nic.mac1609_4 retriesExceeded:count 0
attr source org_car2x_veins_modules_mac_sigRetriesExceeded
scalar World.node[34].nic.mac1609_4 sentAcks:count 0
attr source org_car2x_veins_modules_mac_sigSentAck
scalar World.node[34].nic.mac1609_4 sentPackets:count 761
attr source org_car2x_veins_modules_mac_sigSentPacket
scalar World.node[34].nic.mac1609_4 collisions:count 0
attr source org_car2x_veins_modules_mac_sigCollision
scalar World.node[34].nic.mac1609_4 channelBusy:timeavg 0.15295030614679
attr source org_car2x_veins_modules_mac_sigChannelBusy
scalar World.node[30].appl.middleware.DenService transmission:count 150
attr source DenmSent
scalar World.node[30].appl.middleware.DenService reception:count 31523
attr source DenmReceived
scalar World.node[30].nic.phy80211p busyTime 0.14434094488201
scalar World.node[30].nic.mac1609_4 ReceivedUnicastPackets 0
scalar World.node[30].nic.mac1609_4 ReceivedBroadcasts 34810
scalar World.node[30].nic.mac1609_4 SentPackets 846
scalar World.node[30].nic.mac1609_4 SentAcknowledgements 0
scalar World.node[30].nic.mac1609_4 RetriesExceeded 0
scalar World.node[30].nic.mac1609_4 SNIRLostPackets 540
scalar World.node[30].nic.mac1609_4 RXTXLostPackets 0
scalar World.node[30].nic.mac1609_4 TotalLostPackets 540
scalar World.node[30].nic.mac1609_4 DroppedPacketsInMac 0
scalar World.node[30].nic.mac1609_4 TooLittleTime 0
scalar World.node[30].nic.mac1609_4 TimesIntoBackoff 950
scalar World.node[30].nic.mac1609_4 SlotsBackoff 3953
scalar World.node[30].nic.mac1609_4 NumInternalContention 0
scalar World.node[30].nic.mac1609_4 totalBusyTime 7.438678
scalar World.node[30].nic.mac1609_4 retriesExceeded:count 0
attr source org_car2x_veins_modules_mac_sigRetriesExceeded
scalar World.node[30].nic.mac1609_4 sentAcks:count 0
attr source org_car2x_veins_modules_mac_sigSentAck
scalar World.node[30].nic.mac1609_4 sentPackets:count 846
attr source org_car2x_veins_modules_mac_sigSentPacket
scalar World.node[30].nic.mac1609_4 collisions:count 0
attr source org_car2x_veins_modules_mac_sigCollision
scalar World.node[30].nic.mac1609_4 channelBusy:timeavg 0.14643153450971
attr source org_car2x_veins_modules_mac_sigChannelBusy
scalar World.node[18].appl.middleware.DenService transmission:count 373
attr source DenmSent
scalar World.node[18].appl.middleware.DenService reception:count 36827
attr source DenmReceived
scalar World.node[18].nic.phy80211p busyTime 0.13295584097868
scalar World.node[18].nic.mac1609_4 ReceivedUnicastPackets 0
scalar World.node[18].nic.mac1609_4 ReceivedBroadcasts 41311
scalar World.node[18].nic.mac1609_4 SentPackets 1089
scalar World.node[18].nic.mac1609_4 SentAcknowledgements 0
scalar World.node[18].nic.mac1609_4 RetriesExceeded 0
scalar World.node[18].nic.mac1609_4 SNIRLostPackets 542
scalar World.node[18].nic.mac1609_4 RXTXLostPackets 0
scalar World.node[18].nic.mac1609_4 TotalLostPackets 542
scalar World.node[18].nic.mac1609_4 DroppedPacketsInMac 0
scalar World.node[18].nic.mac1609_4 TooLittleTime 0
scalar World.node[18].nic.mac1609_4 TimesIntoBackoff 1089
scalar World.node[18].nic.mac1609_4 SlotsBackoff 4615
scalar World.node[18].nic.mac1609_4 NumInternalContention 0
scalar World.node[18].nic.mac1609_4 totalBusyTime 8.853132450767
scalar World.node[18].nic.mac1609_4 retriesExceeded:count 0
attr source org_car2x_veins_modules_mac_sigRetriesExceeded
scalar World.node[18].nic.mac1609_4 sentAcks:count 0
attr source org_car2x_veins_modules_mac_sigSentAck
scalar World.node[18].nic.mac1609_4 sentPackets:count 1089
attr source org_car2x_veins_modules_mac_sigSentPacket
scalar World.node[18].nic.mac1609_4 collisions:count 0
attr source org_car2x_veins_modules_mac_sigCollision
scalar World.node[18].nic.mac1609_4 channelBusy:timeavg 0.13536972556887
attr source org_car2x_veins_modules_mac_sigChannelBusy
scalar World.node[50].appl.middleware.DenService transmission:count 150
attr source DenmSent
scalar World.node[50].appl.middleware.DenService reception:count 24331
attr source DenmReceived
scalar World.node[50].nic.phy80211p busyTime 0.16523038575676
scalar World.node[50].nic.mac1609_4 ReceivedUnicastPackets 0
scalar World.node[50].nic.mac1609_4 ReceivedBroadcasts 26451
scalar World.node[50].nic.mac1609_4 SentPackets 561
scalar World.node[50].nic.mac1609_4 SentAcknowledgements 0
scalar World.node[50].nic.mac1609_4 RetriesExceeded 0
scalar World.node[50].nic.mac1609_4 SNIRLostPackets 519
scalar World.node[50].nic.mac1609_4 RXTXLostPackets 0
scalar World.node[50].nic.mac1609_4 TotalLostPackets 519
scalar World.node[50].nic.mac1609_4 DroppedPacketsInMac 0
scalar World.node[50].nic.mac1609_4 TooLittleTime 0
scalar World.node[50].nic.mac1609_4 TimesIntoBackoff 561
scalar World.node[50].nic.mac1609_4 SlotsBackoff 2618
scalar World.node[50].nic.mac1609_4 NumInternalContention 0
scalar World.node[50].nic.mac1609_4 totalBusyTime 5.591022846087
scalar World.node[50].nic.mac1609_4 retriesExceeded:count 0
attr source org_car2x_veins_modules_mac_sigRetriesExceeded
scalar World.node[50].nic.mac1609_4 sentAcks:count 0
attr source org_car2x_veins_modules_mac_sigSentAck
scalar World.node[50].nic.mac1609_4 sentPackets:count 561
attr source org_car2x_veins_modules_mac_sigSentPacket
scalar World.node[50].nic.mac1609_4 collisions:count 0
attr source org_car2x_veins_modules_mac_sigCollision
scalar World.node[50].nic.mac1609_4 channelBusy:timeavg 0.1659069638107
attr source org_car2x_veins_modules_mac_sigChannelBusy
scalar World.node[16].appl.middleware.DenService transmission:count 160
attr source DenmSent
scalar World.node[16].appl.middleware.DenService reception:count 36472
attr source DenmReceived
scalar World.node[16].nic.phy80211p busyTime 0.12953272459508
scalar World.node[16].nic.mac1609_4 ReceivedUnicastPackets 0
scalar World.node[16].nic.mac1609_4 ReceivedBroadcasts 41353
scalar World.node[16].nic.mac1609_4 SentPackets 1131
scalar World.node[16].nic.mac1609_4 SentAcknowledgements 0
scalar World.node[16].nic.mac1609_4 RetriesExceeded 0
scalar World.node[16].nic.mac1609_4 SNIRLostPackets 945
scalar World.node[16].nic.mac1609_4 RXTXLostPackets 0
scalar World.node[16].nic.mac1609_4 TotalLostPackets 945
scalar World.node[16].nic.mac1609_4 DroppedPacketsInMac 0
scalar World.node[16].nic.mac1609_4 TooLittleTime 0
scalar World.node[16].nic.mac1609_4 TimesIntoBackoff 1131
scalar World.node[16].nic.mac1609_4 SlotsBackoff 4582
scalar World.node[16].nic.mac1609_4 NumInternalContention 0
scalar World.node[16].nic.mac1609_4 totalBusyTime 8.924716027576
scalar World.node[16].nic.mac1609_4 retriesExceeded:count 0
attr source org_car2x_veins_modules_mac_sigRetriesExceeded
scalar World.node[16].nic.mac1609_4 sentAcks:count 0
attr source org_car2x_veins_modules_mac_sigSentAck
scalar World.node[16].nic.mac1609_4 sentPackets:count 1131
attr source org_car2x_veins_modules_mac_sigSentPacket
scalar World.node[16].nic.mac1609_4 collisions:count 0
attr source org_car2x_veins_modules_mac_sigCollision
scalar World.node[16].nic.mac1609_4 channelBusy:timeavg 0.1314397045789
attr source org_car2x_veins_modules_mac_sigChannelBusy
scalar World.node[33].appl.middleware.DenService transmission:count 30
attr source DenmSent
scalar World.node[33].appl.middleware.DenService reception:count 32983
attr source DenmReceived
scalar World.node[33].nic.phy80211p busyTime 0.14981727810664
scalar World.node[33].nic.mac1609_4 ReceivedUnicastPackets 0
scalar World.node[33].nic.mac1609_4 ReceivedBroadcasts 36396
scalar World.node[33].nic.mac1609_4 SentPackets 844
scalar World.node[33].nic.mac1609_4 SentAcknowledgements 0
scalar World.node[33].nic.mac1609_4 RetriesExceeded 0
scalar World.node[33].nic.mac1609_4 SNIRLostPackets 268
scalar World.node[33].nic.mac1609_4 RXTXLostPackets 0
scalar World.node[33].nic.mac1609_4 TotalLostPackets 268
scalar World.node[33].nic.mac1609_4 DroppedPacketsInMac 0
scalar World.node[33].nic.mac1609_4 TooLittleTime 0
scalar World.node[33].nic.mac1609_4 TimesIntoBackoff 844
scalar World.node[33].nic.mac1609_4 SlotsBackoff 3745
scalar World.node[33].nic.mac1609_4 NumInternalContention 0
scalar World.node[33].nic.mac1609_4 totalBusyTime 7.737927721151
scalar World.node[33].nic.mac1609_4 retriesExceeded:count 0
attr source org_car2x_veins_modules_mac_sigRetriesExceeded
scalar World.node[33].nic.mac1609_4 sentAcks:count 0
attr source org_car2x_veins_modules_mac_sigSentAck
scalar World.node[33].nic.mac1609_4 sentPackets:count 844
attr source org_car2x_veins_modules_mac_sigSentPacket
scalar World.node[33].nic.mac1609_4 collisions:count 0
attr source org_car2x_veins_modules_mac_sigCollision
scalar World.node[33].nic.mac1609_4 channelBusy:timeavg 0.15262184854354
attr source org_car2x_veins_modules_mac_sigChannelBusy
scalar World.node[23].appl.middleware.DenService transmission:count 10
attr source DenmSent
scalar World.node[23].appl.middleware.DenService reception:count 37919
attr source DenmReceived
scalar World.node[23].nic.phy80211p busyTime 0.14007125401939
scalar World.node[23].nic.mac1609_4 ReceivedUnicastPackets 0
scalar World.node[23].nic.mac1609_4 ReceivedBroadcasts 41801
scalar World.node[23].nic.mac1609_4 SentPackets 1036
scalar World.node[23].nic.mac1609_4 SentAcknowledgements 0
scalar World.node[23].nic.mac1609_4 RetriesExceeded 0
scalar World.node[23].nic.mac1609_4 SNIRLostPackets 250
scalar World.node[23].nic.mac1609_4 RXTXLostPackets 0
scalar World.node[23].nic.mac1609_4 TotalLostPackets 250
scalar World.node[23].nic.mac1609_4 DroppedPacketsInMac 0
scalar World.node[23].nic.mac1609_4 TooLittleTime 0
scalar World.node[23].nic.mac1609_4 TimesIntoBackoff 1036
scalar World.node[23].nic.mac1609_4 SlotsBackoff 5755
scalar World.node[23].nic.mac1609_4 NumInternalContention 0
scalar World.node[23].nic.mac1609_4 totalBusyTime 8.907579240546
scalar World.node[23].nic.mac1609_4 retriesExceeded:count 0
attr source org_car2x_veins_modules_mac_sigRetriesExceeded
scalar World.node[23].nic.mac1609_4 sentAcks:count 0
attr source org_car2x_veins_modules_mac_sigSentAck
scalar World.node[23].nic.mac1609_4 sentPackets:count 1036
attr source org_car2x_veins_modules_mac_sigSentPacket
scalar World.node[23].nic.mac1609_4 collisions:count 0
attr source org_car2x_veins_modules_mac_sigCollision
scalar World.node[23].nic.mac1609_4 channelBusy:timeavg 0.14320866946224
attr source org_car2x_veins_modules_mac_sigChannelBusy
scalar World.node[53].appl.middleware.DenService transmission:count 254
attr source DenmSent
scalar World.node[53].appl.middleware.DenService reception:count 27072
attr source DenmReceived
scalar World.node[53].nic.phy80211p busyTime 0.16739704109599
scalar World.node[53].nic.mac1609_4 ReceivedUnicastPackets 0
scalar World.node[53].nic.mac1609_4 ReceivedBroadcasts 29427
scalar World.node[53].nic.mac1609_4 SentPackets 607
scalar World.node[53].nic.mac1609_4 SentAcknowledgements 0
scalar World.node[53].nic.mac1609_4 RetriesExceeded 0
scalar World.node[53].nic.mac1609_4 SNIRLostPackets 196
scalar World.node[53].nic.mac1609_4 RXTXLostPackets 0
scalar World.node[53].nic.mac1609_4 TotalLostPackets 196
scalar World.node[53].nic.mac1609_4 DroppedPacketsInMac 0
scalar World.node[53].nic.mac1609_4 TooLittleTime 0
scalar World.node[53].nic.mac1609_4 TimesIntoBackoff 611
scalar World.node[53].nic.mac1609_4 SlotsBackoff 2985
scalar World.node[53].nic.mac1609_4 NumInternalContention 0
scalar World.node[53].nic.mac1609_4 totalBusyTime 6.208387662016
scalar World.node[53].nic.mac1609_4 retriesExceeded:count 0
attr source org_car2x_veins_modules_mac_sigRetriesExceeded
scalar World.node[53].nic.mac1609_4 sentAcks:count 0
attr source org_car2x_veins_modules_mac_sigSentAck
scalar World.node[53].nic.mac1609_4 sentPackets:count 607
attr source org_car2x_veins_modules_mac_sigSentPacket
scalar World.node[53].nic.mac1609_4 collisions:count 0
attr source org_car2x_veins_modules_mac_sigCollision
scalar World.node[53].nic.mac1609_4 channelBusy:timeavg 0.17009281265808
attr source org_car2x_veins_modules_mac_sigChannelBusy
scalar World.node[22].appl.middleware.DenService transmission:count 140
attr source DenmSent
scalar World.node[22].appl.middleware.DenService reception:count 41384
attr source DenmReceived
scalar World.node[22].nic.phy80211p busyTime 0.14257932253319
scalar World.node[22].nic.mac1609_4 ReceivedUnicastPackets 0
scalar World.node[22].nic.mac1609_4 ReceivedBroadcasts 45730
scalar World.node[22].nic.mac1609_4 SentPackets 1131
scalar World.node[22].nic.mac1609_4 SentAcknowledgements 0
scalar World.node[22].nic.mac1609_4 RetriesExceeded 0
scalar World.node[22].nic.mac1609_4 SNIRLostPackets 963
scalar World.node[22].nic.mac1609_4 RXTXLostPackets 0
scalar World.node[22].nic.mac1609_4 TotalLostPackets 963
scalar World.node[22].nic.mac1609_4 DroppedPacketsInMac 0
scalar World.node[22].nic.mac1609_4 TooLittleTime 0
scalar World.node[22].nic.mac1609_4 TimesIntoBackoff 1132
scalar World.node[22].nic.mac1609_4 SlotsBackoff 4647
scalar World.node[22].nic.mac1609_4 NumInternalContention 0
scalar World.node[22].nic.mac1609_4 totalBusyTime 9.813630742161
scalar World.node[22].nic.mac1609_4 retriesExceeded:count 0
attr source org_car2x_veins_modules_mac_sigRetriesExceeded
scalar World.node[22].nic.mac1609_4 sentAcks:count 0
attr source org_car2x_veins_modules_mac_sigSentAck
scalar World.node[22].nic.mac1609_4 sentPackets:count 1131
attr source org_car2x_veins_modules_mac_sigSentPacket
scalar World.node[22].nic.mac1609_4 collisions:count 0
attr source org_car2x_veins_modules_mac_sigCollision
scalar World.node[22].nic.mac1609_4 channelBusy:timeavg 0.14453139439654
attr source org_car2x_veins_modules_mac_sigChannelBusy
scalar World.node[79].appl.middleware.DenService transmission:count 11
attr source DenmSent
scalar World.node[79].appl.middleware.DenService reception:count 8613
attr source DenmReceived
scalar World.node[79].nic.phy80211p busyTime 0.17892999999998
scalar World.node[79].nic.mac1609_4 ReceivedUnicastPackets 0
scalar World.node[79].nic.mac1609_4 ReceivedBroadcasts 9265
scalar World.node[79].nic.mac1609_4 SentPackets 186
scalar World.node[79].nic.mac1609_4 SentAcknowledgements 0
scalar World.node[79].nic.mac1609_4 RetriesExceeded 0
scalar World.node[79].nic.mac1609_4 SNIRLostPackets 487
scalar World.node[79].nic.mac1609_4 RXTXLostPackets 0
scalar World.node[79].nic.mac1609_4 TotalLostPackets 487
scalar World.node[79].nic.mac1609_4 DroppedPacketsInMac 0
scalar World.node[79].nic.mac1609_4 TooLittleTime 0
scalar World.node[79].nic.mac1609_4 TimesIntoBackoff 186
scalar World.node[79].nic.mac1609_4 SlotsBackoff 1361
scalar World.node[79].nic.mac1609_4 NumInternalContention 0
scalar World.node[79].nic.mac1609_4 totalBusyTime 1.996129481175
scalar World.node[79].nic.mac1609_4 retriesExceeded:count 0
attr source org_car2x_veins_modules_mac_sigRetriesExceeded
scalar World.node[79].nic.mac1609_4 sentAcks:count 0
attr source org_car2x_veins_modules_mac_sigSentAck
scalar World.node[79].nic.mac1609_4 sentPackets:count 186
attr source org_car2x_veins_modules_mac_sigSentPacket
scalar World.node[79].nic.mac1609_4 collisions:count 0
attr source org_car2x_veins_modules_mac_sigCollision
scalar World.node[79].nic.mac1609_4 channelBusy:timeavg 0.17822584653347
attr source org_car2x_veins_modules_mac_sigChannelBusy
scalar World.node[21].appl.middleware.DenService transmission:count 341
attr source DenmSent
scalar World.node[21].appl.middleware.DenService reception:count 43998
attr source DenmReceived
scalar World.node[21].nic.phy80211p busyTime 0.14261910112363
scalar World.node[21].nic.mac1609_4 ReceivedUnicastPackets 0
scalar World.node[21].nic.mac1609_4 ReceivedBroadcasts 48525
scalar World.node[21].nic.mac1609_4 SentPackets 1186
scalar World.node[21].nic.mac1609_4 SentAcknowledgements 0
scalar World.node[21].nic.mac1609_4 RetriesExceeded 0
scalar World.node[21].nic.mac1609_4 SNIRLostPackets 446
scalar World.node[21].nic.mac1609_4 RXTXLostPackets 25
scalar World.node[21].nic.mac1609_4 TotalLostPackets 471
scalar World.node[21].nic.mac1609_4 DroppedPacketsInMac 0
scalar World.node[21].nic.mac1609_4 TooLittleTime 0
scalar World.node[21].nic.mac1609_4 TimesIntoBackoff 1314
scalar World.node[21].nic.mac1609_4 SlotsBackoff 5504
scalar World.node[21].nic.mac1609_4 NumInternalContention 0
scalar World.node[21].nic.mac1609_4 totalBusyTime 10.333417259767
scalar World.node[21].nic.mac1609_4 retriesExceeded:count 0
attr source org_car2x_veins_modules_mac_sigRetriesExceeded
scalar World.node[21].nic.mac1609_4 sentAcks:count 0
attr source org_car2x_veins_modules_mac_sigSentAck
scalar World.node[21].nic.mac1609_4 sentPackets:count 1186
attr source org_car2x_veins_modules_mac_sigSentPacket
scalar World.node[21].nic.mac1609_4 collisions:count 0
attr source org_car2x_veins_modules_mac_sigCollision
scalar World.node[21].nic.mac1609_4 channelBusy:timeavg 0.14513292446832
attr source org_car2x_veins_modules_mac_sigChannelBusy
scalar World.node[46].appl.middleware.DenService transmission:count 384
attr source DenmSent
scalar World.node[46].appl.middleware.DenService reception:count 34852
attr source DenmReceived
scalar World.node[46].nic.phy80211p busyTime 0.16483414433005
scalar World.node[46].nic.mac1609_4 ReceivedUnicastPackets 0
scalar World.node[46].nic.mac1609_4 ReceivedBroadcasts 38052
scalar World.node[46].nic.mac1609_4 SentPackets 808
scalar World.node[46].nic.mac1609_4 SentAcknowledgements 0
scalar World.node[46].nic.mac1609_4 RetriesExceeded 0
scalar World.node[46].nic.mac1609_4 SNIRLostPackets 658
scalar World.node[46].nic.mac1609_4 RXTXLostPackets 0
scalar World.node[46].nic.mac1609_4 TotalLostPackets 658
scalar World.node[46].nic.mac1609_4 DroppedPacketsInMac 0
scalar World.node[46].nic.mac1609_4 TooLittleTime 0
scalar World.node[46].nic.mac1609_4 TimesIntoBackoff 808
scalar World.node[46].nic.mac1609_4 SlotsBackoff 3589
scalar World.node[46].nic.mac1609_4 NumInternalContention 0
scalar World.node[46].nic.mac1609_4 totalBusyTime 8.072818208527
scalar World.node[46].nic.mac1609_4 retriesExceeded:count 0
attr source org_car2x_veins_modules_mac_sigRetriesExceeded
scalar World.node[46].nic.mac1609_4 sentAcks:count 0
attr source org_car2x_veins_modules_mac_sigSentAck
scalar World.node[46].nic.mac1609_4 sentPackets:count 808
attr source org_car2x_veins_modules_mac_sigSentPacket
scalar World.node[46].nic.mac1609_4 collisions:count 0
attr source org_car2x_veins_modules_mac_sigCollision
scalar World.node[46].nic.mac1609_4 channelBusy:timeavg 0.16645082813066
attr source org_car2x_veins_modules_mac_sigChannelBusy
scalar World.node[57].appl.middleware.DenService transmission:count 0
attr source DenmSent
scalar World.node[57].appl.middleware.DenService reception:count 30211
attr source DenmReceived
scalar World.node[57].nic.phy80211p busyTime 0.17185056234732
scalar World.node[57].nic.mac1609_4 ReceivedUnicastPackets 0
scalar World.node[57].nic.mac1609_4 ReceivedBroadcasts 32613
scalar World.node[57].nic.mac1609_4 SentPackets 681
scalar World.node[57].nic.mac1609_4 SentAcknowledgements 0
scalar World.node[57].nic.mac1609_4 RetriesExceeded 0
scalar World.node[57].nic.mac1609_4 SNIRLostPackets 1519
scalar World.node[57].nic.mac1609_4 RXTXLostPackets 0
scalar World.node[57].nic.mac1609_4 TotalLostPackets 1519
scalar World.node[57].nic.mac1609_4 DroppedPacketsInMac 0
scalar World.node[57].nic.mac1609_4 TooLittleTime 0
scalar World.node[57].nic.mac1609_4 TimesIntoBackoff 681
scalar World.node[57].nic.mac1609_4 SlotsBackoff 5341
scalar World.node[57].nic.mac1609_4 NumInternalContention 0
scalar World.node[57].nic.mac1609_4 totalBusyTime 7.019553345221
scalar World.node[57].nic.mac1609_4 retriesExceeded:count 0
attr source org_car2x_veins_modules_mac_sigRetriesExceeded
scalar World.node[57].nic.mac1609_4 sentAcks:count 0
attr source org_car2x_veins_modules_mac_sigSentAck
scalar World.node[57].nic.mac1609_4 sentPackets:count 681
attr source org_car2x_veins_modules_mac_sigSentPacket
scalar World.node[57].nic.mac1609_4 collisions:count 0
attr source org_car2x_veins_modules_mac_sigCollision
scalar World.node[57].nic.mac1609_4 channelBusy:timeavg 0.17162722115468
attr source org_car2x_veins_modules_mac_sigChannelBusy
scalar World.node[68].appl.middleware.DenService transmission:count 179
attr source DenmSent
scalar World.node[68].appl.middleware.DenService reception:count 21289
attr source DenmReceived
scalar World.node[68].nic.phy80211p busyTime 0.17799000000006
scalar World.node[68].nic.mac1609_4 ReceivedUnicastPackets 0
scalar World.node[68].nic.mac1609_4 ReceivedBroadcasts 23157
scalar World.node[68].nic.mac1609_4 SentPackets 466
scalar World.node[68].nic.mac1609_4 SentAcknowledgements 0
scalar World.node[68].nic.mac1609_4 RetriesExceeded 0
scalar World.node[68].nic.mac1609_4 SNIRLostPackets 1053
scalar World.node[68].nic.mac1609_4 RXTXLostPackets 26
scalar World.node[68].nic.mac1609_4 TotalLostPackets 1079
scalar World.node[68].nic.mac1609_4 DroppedPacketsInMac 0
scalar World.node[68].nic.mac1609_4 TooLittleTime 0
scalar World.node[68].nic.mac1609_4 TimesIntoBackoff 932
scalar World.node[68].nic.mac1609_4 SlotsBackoff 4589
scalar World.node[68].nic.mac1609_4 NumInternalContention 0
scalar World.node[68].nic.mac1609_4 totalBusyTime 4.970682080449
scalar World.node[68].nic.mac1609_4 retriesExceeded:count 0
attr source org_car2x_veins_modules_mac_sigRetriesExceeded
scalar World.node[68].nic.mac1609_4 sentAcks:count 0
attr source org_car2x_veins_modules_mac_sigSentAck
scalar World.node[68].nic.mac1609_4 sentPackets:count 466
attr source org_car2x_veins_modules_mac_sigSentPacket
scalar World.node[68].nic.mac1609_4 collisions:count 0
attr source org_car2x_veins_modules_mac_sigCollision
scalar World.node[68].nic.mac1609_4 channelBusy:timeavg 0.17752436001609
attr source org_car2x_veins_modules_mac_sigChannelBusy
scalar World.node[80].appl.middleware.DenService transmission:count 67
attr source DenmSent
scalar World.node[80].appl.middleware.DenService reception:count 13455
attr source DenmReceived
scalar World.node[80].nic.phy80211p busyTime 0.17961285714284
scalar World.node[80].nic.mac1609_4 ReceivedUnicastPackets 0
scalar World.node[80].nic.mac1609_4 ReceivedBroadcasts 14525
scalar World.node[80].nic.mac1609_4 SentPackets 279
scalar World.node[80].nic.mac1609_4 SentAcknowledgements 0
scalar World.node[80].nic.mac1609_4 RetriesExceeded 0
scalar World.node[80].nic.mac1609_4 SNIRLostPackets 142
scalar World.node[80].nic.mac1609_4 RXTXLostPackets 0
scalar World.node[80].nic.mac1609_4 TotalLostPackets 142
scalar World.node[80].nic.mac1609_4 DroppedPacketsInMac 0
scalar World.node[80].nic.mac1609_4 TooLittleTime 0
scalar World.node[80].nic.mac1609_4 TimesIntoBackoff 279
scalar World.node[80].nic.mac1609_4 SlotsBackoff 1705
scalar World.node[80].nic.mac1609_4 NumInternalContention 0
scalar World.node[80].nic.mac1609_4 totalBusyTime 3.058333182771
scalar World.node[80].nic.mac1609_4 retriesExceeded:count 0
attr source org_car2x_veins_modules_mac_sigRetriesExceeded
scalar World.node[80].nic.mac1609_4 sentAcks:count 0
attr source org_car2x_veins_modules_mac_sigSentAck
scalar World.node[80].nic.mac1609_4 sentPackets:count 279
attr source org_car2x_veins_modules_mac_sigSentPacket
scalar World.node[80].nic.mac1609_4 collisions:count 0
attr source org_car2x_veins_modules_mac_sigCollision
scalar World.node[80].nic.mac1609_4 channelBusy:timeavg 0.18204364183159
attr source org_car2x_veins_modules_mac_sigChannelBusy
scalar World.node[47].appl.middleware.DenService transmission:count 230
attr source DenmSent
scalar World.node[47].appl.middleware.DenService reception:count 37978
attr source DenmReceived
scalar World.node[47].nic.phy80211p busyTime 0.16126022471921
scalar World.node[47].nic.mac1609_4 ReceivedUnicastPackets 0
scalar World.node[47].nic.mac1609_4 ReceivedBroadcasts 41499
scalar World.node[47].nic.mac1609_4 SentPackets 889
scalar World.node[47].nic.mac1609_4 SentAcknowledgements 0
scalar World.node[47].nic.mac1609_4 RetriesExceeded 0
scalar World.node[47].nic.mac1609_4 SNIRLostPackets 221
scalar World.node[47].nic.mac1609_4 RXTXLostPackets 6
scalar World.node[47].nic.mac1609_4 TotalLostPackets 227
scalar World.node[47].nic.mac1609_4 DroppedPacketsInMac 0
scalar World.node[47].nic.mac1609_4 TooLittleTime 0
scalar World.node[47].nic.mac1609_4 TimesIntoBackoff 1778
scalar World.node[47].nic.mac1609_4 SlotsBackoff 7484
scalar World.node[47].nic.mac1609_4 NumInternalContention 0
scalar World.node[47].nic.mac1609_4 totalBusyTime 8.769225
scalar World.node[47].nic.mac1609_4 retriesExceeded:count 0
attr source org_car2x_veins_modules_mac_sigRetriesExceeded
scalar World.node[47].nic.mac1609_4 sentAcks:count 0
attr source org_car2x_veins_modules_mac_sigSentAck
scalar World.node[47].nic.mac1609_4 sentPackets:count 889
attr source org_car2x_veins_modules_mac_sigSentPacket
scalar World.node[47].nic.mac1609_4 collisions:count 0
attr source org_car2x_veins_modules_mac_sigCollision
scalar World.node[47].nic.mac1609_4 channelBusy:timeavg 0.16421842705696
attr source org_car2x_veins_modules_mac_sigChannelBusy
scalar World.node[48].appl.middleware.DenService transmission:count 291
attr source DenmSent
scalar World.node[48].appl.middleware.DenService reception:count 39138
attr source DenmReceived
scalar World.node[48].nic.phy80211p busyTime 0.16765037593995
scalar World.node[48].nic.mac1609_4 ReceivedUnicastPackets 0
scalar World.node[48].nic.mac1609_4 ReceivedBroadcasts 42994
scalar World.node[48].nic.mac1609_4 SentPackets 886
scalar World.node[48].nic.mac1609_4 SentAcknowledgements 0
scalar World.node[48].nic.mac1609_4 RetriesExceeded 0
scalar World.node[48].nic.mac1609_4 SNIRLostPackets 237
scalar World.node[48].nic.mac1609_4 RXTXLostPackets 0
scalar World.node[48].nic.mac1609_4 TotalLostPackets 237
scalar World.node[48].nic.mac1609_4 DroppedPacketsInMac 0
scalar World.node[48].nic.mac1609_4 TooLittleTime 0
scalar World.node[48].nic.mac1609_4 TimesIntoBackoff 1063
scalar World.node[48].nic.mac1609_4 SlotsBackoff 5118
scalar World.node[48].nic.mac1609_4 NumInternalContention 0
scalar World.node[48].nic.mac1609_4 totalBusyTime 9.072425615601
scalar World.node[48].nic.mac1609_4 retriesExceeded:count 0
attr source org_car2x_veins_modules_mac_sigRetriesExceeded
scalar World.node[48].nic.mac1609_4 sentAcks:count 0
attr source org_car2x_veins_modules_mac_sigSentAck
scalar World.node[48].nic.mac1609_4 sentPackets:count 886
attr source org_car2x_veins_modules_mac_sigSentPacket
scalar World.node[48].nic.mac1609_4 collisions:count 0
attr source org_car2x_veins_modules_mac_sigCollision
scalar World.node[48].nic.mac1609_4 channelBusy:timeavg 0.17053431608282
attr source org_car2x_veins_modules_mac_sigChannelBusy
scalar World.node[39].appl.middleware.DenService transmission:count 180
attr source DenmSent
scalar World.node[39].appl.middleware.DenService reception:count 44128
attr source DenmReceived
scalar World.node[39].nic.phy80211p busyTime 0.16268199036923
scalar World.node[39].nic.mac1609_4 ReceivedUnicastPackets 0
scalar World.node[39].nic.mac1609_4 ReceivedBroadcasts 48273
scalar World.node[39].nic.mac1609_4 SentPackets 1038
scalar World.node[39].nic.mac1609_4 SentAcknowledgements 0
scalar World.node[39].nic.mac1609_4 RetriesExceeded 0
scalar World.node[39].nic.mac1609_4 SNIRLostPackets 788
scalar World.node[39].nic.mac1609_4 RXTXLostPackets 1
scalar World.node[39].nic.mac1609_4 TotalLostPackets 789
scalar World.node[39].nic.mac1609_4 DroppedPacketsInMac 0
scalar World.node[39].nic.mac1609_4 TooLittleTime 0
scalar World.node[39].nic.mac1609_4 TimesIntoBackoff 1068
scalar World.node[39].nic.mac1609_4 SlotsBackoff 4444
scalar World.node[39].nic.mac1609_4 NumInternalContention 0
scalar World.node[39].nic.mac1609_4 totalBusyTime 10.262197234821
scalar World.node[39].nic.mac1609_4 retriesExceeded:count 0
attr source org_car2x_veins_modules_mac_sigRetriesExceeded
scalar World.node[39].nic.mac1609_4 sentAcks:count 0
attr source org_car2x_veins_modules_mac_sigSentAck
scalar World.node[39].nic.mac1609_4 sentPackets:count 1038
attr source org_car2x_veins_modules_mac_sigSentPacket
scalar World.node[39].nic.mac1609_4 collisions:count 0
attr source org_car2x_veins_modules_mac_sigCollision
scalar World.node[39].nic.mac1609_4 channelBusy:timeavg 0.16472292417495
attr source org_car2x_veins_modules_mac_sigChannelBusy
scalar World.node[29].appl.middleware.DenService transmission:count 365
attr source DenmSent
scalar World.node[29].appl.middleware.DenService reception:count 49182
attr source DenmReceived
scalar World.node[29].nic.phy80211p busyTime 0.15397575757576
scalar World.node[29].nic.mac1609_4 ReceivedUnicastPackets 0
scalar World.node[29].nic.mac1609_4 ReceivedBroadcasts 53778
scalar World.node[29].nic.mac1609_4 SentPackets 1209
scalar World.node[29].nic.mac1609_4 SentAcknowledgements 0
scalar World.node[29].nic.mac1609_4 RetriesExceeded 0
scalar World.node[29].nic.mac1609_4 SNIRLostPackets 283
scalar World.node[29].nic.mac1609_4 RXTXLostPackets 0
scalar World.node[29].nic.mac1609_4 TotalLostPackets 283
scalar World.node[29].nic.mac1609_4 DroppedPacketsInMac 0
scalar World.node[29].nic.mac1609_4 TooLittleTime 0
scalar World.node[29].nic.mac1609_4 TimesIntoBackoff 1212
scalar World.node[29].nic.mac1609_4 SlotsBackoff 6679
scalar World.node[29].nic.mac1609_4 NumInternalContention 0
scalar World.node[29].nic.mac1609_4 totalBusyTime 11.396596887727
scalar World.node[29].nic.mac1609_4 retriesExceeded:count 0
attr source org_car2x_veins_modules_mac_sigRetriesExceeded
scalar World.node[29].nic.mac1609_4 sentAcks:count 0
attr source org_car2x_veins_modules_mac_sigSentAck
scalar World.node[29].nic.mac1609_4 sentPackets:count 1209
attr source org_car2x_veins_modules_mac_sigSentPacket
scalar World.node[29].nic.mac1609_4 collisions:count 0
attr source org_car2x_veins_modules_mac_sigCollision
scalar World.node[29].nic.mac1609_4 channelBusy:timeavg 0.15697851272581
attr source org_car2x_veins_modules_mac_sigChannelBusy
scalar World.node[54].appl.middleware.DenService transmission:count 180
attr source DenmSent
scalar World.node[54].appl.middleware.DenService reception:count 37988
attr source DenmReceived
scalar World.node[54].nic.phy80211p busyTime 0.17118536779336
scalar World.node[54].nic.mac1609_4 ReceivedUnicastPackets 0
scalar World.node[54].nic.mac1609_4 ReceivedBroadcasts 41510
scalar World.node[54].nic.mac1609_4 SentPackets 838
scalar World.node[54].nic.mac1609_4 SentAcknowledgements 0
scalar World.node[54].nic.mac1609_4 RetriesExceeded 0
scalar World.node[54].nic.mac1609_4 SNIRLostPackets 263
scalar World.node[54].nic.mac1609_4 RXTXLostPackets 0
scalar World.node[54].nic.mac1609_4 TotalLostPackets 263
scalar World.node[54].nic.mac1609_4 DroppedPacketsInMac 0
scalar World.node[54].nic.mac1609_4 TooLittleTime 0
scalar World.node[54].nic.mac1609_4 TimesIntoBackoff 838
scalar World.node[54].nic.mac1609_4 SlotsBackoff 3520
scalar World.node[54].nic.mac1609_4 NumInternalContention 0
scalar World.node[54].nic.mac1609_4 totalBusyTime 8.747108129313
scalar World.node[54].nic.mac1609_4 retriesExceeded:count 0
attr source org_car2x_veins_modules_mac_sigRetriesExceeded
scalar World.node[54].nic.mac1609_4 sentAcks:count 0
attr source org_car2x_veins_modules_mac_sigSentAck
scalar World.node[54].nic.mac1609_4 sentPackets:count 838
attr source org_car2x_veins_modules_mac_sigSentPacket
scalar World.node[54].nic.mac1609_4 collisions:count 0
attr source org_car2x_veins_modules_mac_sigCollision
scalar World.node[54].nic.mac1609_4 channelBusy:timeavg 0.17389964747118
attr source org_car2x_veins_modules_mac_sigChannelBusy
scalar World.node[66].appl.middleware.DenService transmission:count 252
attr source DenmSent
scalar World.node[66].appl.middleware.DenService reception:count 27525
attr source DenmReceived
scalar World.node[66].nic.phy80211p busyTime 0.17818538243638
scalar World.node[66].nic.mac1609_4 ReceivedUnicastPackets 0
scalar World.node[66].nic.mac1609_4 ReceivedBroadcasts 29973
scalar World.node[66].nic.mac1609_4 SentPackets 588
scalar World.node[66].nic.mac1609_4 SentAcknowledgements 0
scalar World.node[66].nic.mac1609_4 RetriesExceeded 0
scalar World.node[66].nic.mac1609_4 SNIRLostPackets 600
scalar World.node[66].nic.mac1609_4 RXTXLostPackets 0
scalar World.node[66].nic.mac1609_4 TotalLostPackets 600
scalar World.node[66].nic.mac1609_4 DroppedPacketsInMac 0
scalar World.node[66].nic.mac1609_4 TooLittleTime 0
scalar World.node[66].nic.mac1609_4 TimesIntoBackoff 587
scalar World.node[66].nic.mac1609_4 SlotsBackoff 2822
scalar World.node[66].nic.mac1609_4 NumInternalContention 0
scalar World.node[66].nic.mac1609_4 totalBusyTime 6.331233695718
scalar World.node[66].nic.mac1609_4 retriesExceeded:count 0
attr source org_car2x_veins_modules_mac_sigRetriesExceeded
scalar World.node[66].nic.mac1609_4 sentAcks:count 0
attr source org_car2x_veins_modules_mac_sigSentAck
scalar World.node[66].nic.mac1609_4 sentPackets:count 588
attr source org_car2x_veins_modules_mac_sigSentPacket
scalar World.node[66].nic.mac1609_4 collisions:count 0
attr source org_car2x_veins_modules_mac_sigCollision
scalar World.node[66].nic.mac1609_4 channelBusy:timeavg 0.17935636246603
attr source org_car2x_veins_modules_mac_sigChannelBusy
scalar World.node[51].appl.middleware.DenService transmission:count 160
attr source DenmSent
scalar World.node[51].appl.middleware.DenService reception:count 39471
attr source DenmReceived
scalar World.node[51].nic.phy80211p busyTime 0.16974538745396
scalar World.node[51].nic.mac1609_4 ReceivedUnicastPackets 0
scalar World.node[51].nic.mac1609_4 ReceivedBroadcasts 43380
scalar World.node[51].nic.mac1609_4 SentPackets 903
scalar World.node[51].nic.mac1609_4 SentAcknowledgements 0
scalar World.node[51].nic.mac1609_4 RetriesExceeded 0
scalar World.node[51].nic.mac1609_4 SNIRLostPackets 1227
scalar World.node[51].nic.mac1609_4 RXTXLostPackets 0
scalar World.node[51].nic.mac1609_4 TotalLostPackets 1227
scalar World.node[51].nic.mac1609_4 DroppedPacketsInMac 0
scalar World.node[51].nic.mac1609_4 TooLittleTime 0
scalar World.node[51].nic.mac1609_4 TimesIntoBackoff 903
scalar World.node[51].nic.mac1609_4 SlotsBackoff 3950
scalar World.node[51].nic.mac1609_4 NumInternalContention 0
scalar World.node[51].nic.mac1609_4 totalBusyTime 9.251199740069
scalar World.node[51].nic.mac1609_4 retriesExceeded:count 0
attr source org_car2x_veins_modules_mac_sigRetriesExceeded
scalar World.node[51].nic.mac1609_4 sentAcks:count 0
attr source org_car2x_veins_modules_mac_sigSentAck
scalar World.node[51].nic.mac1609_4 sentPackets:count 903
attr source org_car2x_veins_modules_mac_sigSentPacket
scalar World.node[51].nic.mac1609_4 collisions:count 0
attr source org_car2x_veins_modules_mac_sigCollision
scalar World.node[51].nic.mac1609_4 channelBusy:timeavg 0.17068634206778
attr source org_car2x_veins_modules_mac_sigChannelBusy
scalar World.node[105].appl.middleware.DenService transmission:count 0
attr source DenmSent
scalar World.node[105].appl.middleware.DenService reception:count 83
attr source DenmReceived
scalar World.node[105].nic.phy80211p busyTime 0.19096
scalar World.node[105].nic.mac1609_4 ReceivedUnicastPackets 0
scalar World.node[105].nic.mac1609_4 ReceivedBroadcasts 92
scalar World.node[105].nic.mac1609_4 SentPackets 1
scalar World.node[105].nic.mac1609_4 SentAcknowledgements 0
scalar World.node[105].nic.mac1609_4 RetriesExceeded 0
scalar World.node[105].nic.mac1609_4 SNIRLostPackets 0
[...]
attr source org_car2x_veins_modules_mac_sigSentAck
scalar World.node[177].nic.mac1609_4 sentPackets:count 56
attr source org_car2x_veins_modules_mac_sigSentPacket
scalar World.node[177].nic.mac1609_4 collisions:count 0
attr source org_car2x_veins_modules_mac_sigCollision
scalar World.node[177].nic.mac1609_4 channelBusy:timeavg 0.16881638959456
attr source org_car2x_veins_modules_mac_sigChannelBusy
scalar World.node[178].appl.middleware.DenService transmission:count 0
attr source DenmSent
scalar World.node[178].appl.middleware.DenService reception:count 1424
attr source DenmReceived
scalar World.node[178].nic.phy80211p busyTime 0.16243799445448
scalar World.node[178].nic.mac1609_4 ReceivedUnicastPackets 0
scalar World.node[178].nic.mac1609_4 ReceivedBroadcasts 1516
scalar World.node[178].nic.mac1609_4 SentPackets 32
scalar World.node[178].nic.mac1609_4 SentAcknowledgements 0
scalar World.node[178].nic.mac1609_4 RetriesExceeded 0
scalar World.node[178].nic.mac1609_4 SNIRLostPackets 34
scalar World.node[178].nic.mac1609_4 RXTXLostPackets 0
scalar World.node[178].nic.mac1609_4 TotalLostPackets 34
scalar World.node[178].nic.mac1609_4 DroppedPacketsInMac 0
scalar World.node[178].nic.mac1609_4 TooLittleTime 0
scalar World.node[178].nic.mac1609_4 TimesIntoBackoff 33
scalar World.node[178].nic.mac1609_4 SlotsBackoff 210
scalar World.node[178].nic.mac1609_4 NumInternalContention 0
scalar World.node[178].nic.mac1609_4 totalBusyTime 0.32028
scalar World.node[178].nic.mac1609_4 retriesExceeded:count 0
attr source org_car2x_veins_modules_mac_sigRetriesExceeded
scalar World.node[178].nic.mac1609_4 sentAcks:count 0
attr source org_car2x_veins_modules_mac_sigSentAck
scalar World.node[178].nic.mac1609_4 sentPackets:count 32
attr source org_car2x_veins_modules_mac_sigSentPacket
scalar World.node[178].nic.mac1609_4 collisions:count 0
attr source org_car2x_veins_modules_mac_sigCollision
scalar World.node[178].nic.mac1609_4 channelBusy:timeavg 0.16294675790491
attr source org_car2x_veins_modules_mac_sigChannelBusy
scalar World.node[179].appl.middleware.DenService transmission:count 0
attr source DenmSent
scalar World.node[179].appl.middleware.DenService reception:count 896
attr source DenmReceived
scalar World.node[179].nic.phy80211p busyTime 0.14909743326865
scalar World.node[179].nic.mac1609_4 ReceivedUnicastPackets 0
scalar World.node[179].nic.mac1609_4 ReceivedBroadcasts 958
scalar World.node[179].nic.mac1609_4 SentPackets 22
scalar World.node[179].nic.mac1609_4 SentAcknowledgements 0
scalar World.node[179].nic.mac1609_4 RetriesExceeded 0
scalar World.node[179].nic.mac1609_4 SNIRLostPackets 28
scalar World.node[179].nic.mac1609_4 RXTXLostPackets 8
scalar World.node[179].nic.mac1609_4 TotalLostPackets 36
scalar World.node[179].nic.mac1609_4 DroppedPacketsInMac 0
scalar World.node[179].nic.mac1609_4 TooLittleTime 0
scalar World.node[179].nic.mac1609_4 TimesIntoBackoff 27
scalar World.node[179].nic.mac1609_4 SlotsBackoff 194
scalar World.node[179].nic.mac1609_4 NumInternalContention 0
scalar World.node[179].nic.mac1609_4 totalBusyTime 0.205566
scalar World.node[179].nic.mac1609_4 retriesExceeded:count 0
attr source org_car2x_veins_modules_mac_sigRetriesExceeded
scalar World.node[179].nic.mac1609_4 sentAcks:count 0
attr source org_car2x_veins_modules_mac_sigSentAck
scalar World.node[179].nic.mac1609_4 sentPackets:count 22
attr source org_car2x_veins_modules_mac_sigSentPacket
scalar World.node[179].nic.mac1609_4 collisions:count 0
attr source org_car2x_veins_modules_mac_sigCollision
scalar World.node[179].nic.mac1609_4 channelBusy:timeavg 0.15053714620483
attr source org_car2x_veins_modules_mac_sigChannelBusy
scalar World.node[58].appl.middleware.DenService transmission:count 633
attr source DenmSent
scalar World.node[58].appl.middleware.DenService reception:count 84586
attr source DenmReceived
scalar World.node[58].nic.phy80211p busyTime 0.16033090114932
scalar World.node[58].nic.mac1609_4 ReceivedUnicastPackets 0
scalar World.node[58].nic.mac1609_4 ReceivedBroadcasts 92381
scalar World.node[58].nic.mac1609_4 SentPackets 1645
scalar World.node[58].nic.mac1609_4 SentAcknowledgements 0
scalar World.node[58].nic.mac1609_4 RetriesExceeded 0
scalar World.node[58].nic.mac1609_4 SNIRLostPackets 1801
scalar World.node[58].nic.mac1609_4 RXTXLostPackets 1
scalar World.node[58].nic.mac1609_4 TotalLostPackets 1802
scalar World.node[58].nic.mac1609_4 DroppedPacketsInMac 0
scalar World.node[58].nic.mac1609_4 TooLittleTime 0
scalar World.node[58].nic.mac1609_4 TimesIntoBackoff 2281
scalar World.node[58].nic.mac1609_4 SlotsBackoff 14006
scalar World.node[58].nic.mac1609_4 NumInternalContention 0
scalar World.node[58].nic.mac1609_4 totalBusyTime 19.586664807498
scalar World.node[58].nic.mac1609_4 retriesExceeded:count 0
attr source org_car2x_veins_modules_mac_sigRetriesExceeded
scalar World.node[58].nic.mac1609_4 sentAcks:count 0
attr source org_car2x_veins_modules_mac_sigSentAck
scalar World.node[58].nic.mac1609_4 sentPackets:count 1645
attr source org_car2x_veins_modules_mac_sigSentPacket
scalar World.node[58].nic.mac1609_4 collisions:count 0
attr source org_car2x_veins_modules_mac_sigCollision
scalar World.node[58].nic.mac1609_4 channelBusy:timeavg 0.16138570465409
attr source org_car2x_veins_modules_mac_sigChannelBusy
scalar World.node[72].appl.middleware.DenService transmission:count 793
attr source DenmSent
scalar World.node[72].appl.middleware.DenService reception:count 74824
attr source DenmReceived
scalar World.node[72].nic.phy80211p busyTime 0.16114971701805
scalar World.node[72].nic.mac1609_4 ReceivedUnicastPackets 0
scalar World.node[72].nic.mac1609_4 ReceivedBroadcasts 81991
scalar World.node[72].nic.mac1609_4 SentPackets 1444
scalar World.node[72].nic.mac1609_4 SentAcknowledgements 0
scalar World.node[72].nic.mac1609_4 RetriesExceeded 0
scalar World.node[72].nic.mac1609_4 SNIRLostPackets 1718
scalar World.node[72].nic.mac1609_4 RXTXLostPackets 20
scalar World.node[72].nic.mac1609_4 TotalLostPackets 1738
scalar World.node[72].nic.mac1609_4 DroppedPacketsInMac 0
scalar World.node[72].nic.mac1609_4 TooLittleTime 0
scalar World.node[72].nic.mac1609_4 TimesIntoBackoff 1482
scalar World.node[72].nic.mac1609_4 SlotsBackoff 6092
scalar World.node[72].nic.mac1609_4 NumInternalContention 0
scalar World.node[72].nic.mac1609_4 totalBusyTime 17.395061278117
scalar World.node[72].nic.mac1609_4 retriesExceeded:count 0
attr source org_car2x_veins_modules_mac_sigRetriesExceeded
scalar World.node[72].nic.mac1609_4 sentAcks:count 0
attr source org_car2x_veins_modules_mac_sigSentAck
scalar World.node[72].nic.mac1609_4 sentPackets:count 1444
attr source org_car2x_veins_modules_mac_sigSentPacket
scalar World.node[72].nic.mac1609_4 collisions:count 0
attr source org_car2x_veins_modules_mac_sigCollision
scalar World.node[72].nic.mac1609_4 channelBusy:timeavg 0.16201715799998
attr source org_car2x_veins_modules_mac_sigChannelBusy
scalar World.node[76].appl.middleware.DenService transmission:count 933
attr source DenmSent
scalar World.node[76].appl.middleware.DenService reception:count 25196
attr source DenmReceived
scalar World.node[76].nic.phy80211p busyTime 0.057893485789061
scalar World.node[76].nic.mac1609_4 ReceivedUnicastPackets 0
scalar World.node[76].nic.mac1609_4 ReceivedBroadcasts 27874
scalar World.node[76].nic.mac1609_4 SentPackets 1722
scalar World.node[76].nic.mac1609_4 SentAcknowledgements 0
scalar World.node[76].nic.mac1609_4 RetriesExceeded 0
scalar World.node[76].nic.mac1609_4 SNIRLostPackets 975
scalar World.node[76].nic.mac1609_4 RXTXLostPackets 0
scalar World.node[76].nic.mac1609_4 TotalLostPackets 975
scalar World.node[76].nic.mac1609_4 DroppedPacketsInMac 0
scalar World.node[76].nic.mac1609_4 TooLittleTime 0
scalar World.node[76].nic.mac1609_4 TimesIntoBackoff 1782
scalar World.node[76].nic.mac1609_4 SlotsBackoff 6932
scalar World.node[76].nic.mac1609_4 NumInternalContention 0
scalar World.node[76].nic.mac1609_4 totalBusyTime 6.233504220802
scalar World.node[76].nic.mac1609_4 retriesExceeded:count 0
attr source org_car2x_veins_modules_mac_sigRetriesExceeded
scalar World.node[76].nic.mac1609_4 sentAcks:count 0
attr source org_car2x_veins_modules_mac_sigSentAck
scalar World.node[76].nic.mac1609_4 sentPackets:count 1722
attr source org_car2x_veins_modules_mac_sigSentPacket
scalar World.node[76].nic.mac1609_4 collisions:count 0
attr source org_car2x_veins_modules_mac_sigCollision
scalar World.node[76].nic.mac1609_4 channelBusy:timeavg 0.060305432717243
attr source org_car2x_veins_modules_mac_sigChannelBusy
scalar World.node[81].appl.middleware.DenService transmission:count 432
attr source DenmSent
scalar World.node[81].appl.middleware.DenService reception:count 67263
attr source DenmReceived
scalar World.node[81].nic.phy80211p busyTime 0.1594432229809
scalar World.node[81].nic.mac1609_4 ReceivedUnicastPackets 0
scalar World.node[81].nic.mac1609_4 ReceivedBroadcasts 73964
scalar World.node[81].nic.mac1609_4 SentPackets 1260
scalar World.node[81].nic.mac1609_4 SentAcknowledgements 0
scalar World.node[81].nic.mac1609_4 RetriesExceeded 0
scalar World.node[81].nic.mac1609_4 SNIRLostPackets 1793
scalar World.node[81].nic.mac1609_4 RXTXLostPackets 25
scalar World.node[81].nic.mac1609_4 TotalLostPackets 1818
scalar World.node[81].nic.mac1609_4 DroppedPacketsInMac 0
scalar World.node[81].nic.mac1609_4 TooLittleTime 0
scalar World.node[81].nic.mac1609_4 TimesIntoBackoff 1371
scalar World.node[81].nic.mac1609_4 SlotsBackoff 5528
scalar World.node[81].nic.mac1609_4 NumInternalContention 0
scalar World.node[81].nic.mac1609_4 totalBusyTime 15.709979570284
scalar World.node[81].nic.mac1609_4 retriesExceeded:count 0
attr source org_car2x_veins_modules_mac_sigRetriesExceeded
scalar World.node[81].nic.mac1609_4 sentAcks:count 0
attr source org_car2x_veins_modules_mac_sigSentAck
scalar World.node[81].nic.mac1609_4 sentPackets:count 1260
attr source org_car2x_veins_modules_mac_sigSentPacket
scalar World.node[81].nic.mac1609_4 collisions:count 0
attr source org_car2x_veins_modules_mac_sigCollision
scalar World.node[81].nic.mac1609_4 channelBusy:timeavg 0.15987270788466
attr source org_car2x_veins_modules_mac_sigChannelBusy
scalar World.node[82].appl.middleware.DenService transmission:count 363
attr source DenmSent
scalar World.node[82].appl.middleware.DenService reception:count 67485
attr source DenmReceived
scalar World.node[82].nic.phy80211p busyTime 0.15962360403645
scalar World.node[82].nic.mac1609_4 ReceivedUnicastPackets 0
scalar World.node[82].nic.mac1609_4 ReceivedBroadcasts 73953
scalar World.node[82].nic.mac1609_4 SentPackets 1244
scalar World.node[82].nic.mac1609_4 SentAcknowledgements 0
scalar World.node[82].nic.mac1609_4 RetriesExceeded 0
scalar World.node[82].nic.mac1609_4 SNIRLostPackets 1213
scalar World.node[82].nic.mac1609_4 RXTXLostPackets 2
scalar World.node[82].nic.mac1609_4 TotalLostPackets 1215
scalar World.node[82].nic.mac1609_4 DroppedPacketsInMac 0
scalar World.node[82].nic.mac1609_4 TooLittleTime 0
scalar World.node[82].nic.mac1609_4 TimesIntoBackoff 1250
scalar World.node[82].nic.mac1609_4 SlotsBackoff 5044
scalar World.node[82].nic.mac1609_4 NumInternalContention 0
scalar World.node[82].nic.mac1609_4 totalBusyTime 15.648503030234
scalar World.node[82].nic.mac1609_4 retriesExceeded:count 0
attr source org_car2x_veins_modules_mac_sigRetriesExceeded
scalar World.node[82].nic.mac1609_4 sentAcks:count 0
attr source org_car2x_veins_modules_mac_sigSentAck
scalar World.node[82].nic.mac1609_4 sentPackets:count 1244
attr source org_car2x_veins_modules_mac_sigSentPacket
scalar World.node[82].nic.mac1609_4 collisions:count 0
attr source org_car2x_veins_modules_mac_sigCollision
scalar World.node[82].nic.mac1609_4 channelBusy:timeavg 0.16071909448697
attr source org_car2x_veins_modules_mac_sigChannelBusy
scalar World.node[84].appl.middleware.DenService transmission:count 596
attr source DenmSent
scalar World.node[84].appl.middleware.DenService reception:count 65448
attr source DenmReceived
scalar World.node[84].nic.phy80211p busyTime 0.15918839704927
scalar World.node[84].nic.mac1609_4 ReceivedUnicastPackets 0
scalar World.node[84].nic.mac1609_4 ReceivedBroadcasts 71735
scalar World.node[84].nic.mac1609_4 SentPackets 1234
scalar World.node[84].nic.mac1609_4 SentAcknowledgements 0
scalar World.node[84].nic.mac1609_4 RetriesExceeded 0
scalar World.node[84].nic.mac1609_4 SNIRLostPackets 1209
scalar World.node[84].nic.mac1609_4 RXTXLostPackets 3
scalar World.node[84].nic.mac1609_4 TotalLostPackets 1212
scalar World.node[84].nic.mac1609_4 DroppedPacketsInMac 0
scalar World.node[84].nic.mac1609_4 TooLittleTime 0
scalar World.node[84].nic.mac1609_4 TimesIntoBackoff 1242
scalar World.node[84].nic.mac1609_4 SlotsBackoff 5305
scalar World.node[84].nic.mac1609_4 NumInternalContention 0
scalar World.node[84].nic.mac1609_4 totalBusyTime 15.194701008531
scalar World.node[84].nic.mac1609_4 retriesExceeded:count 0
attr source org_car2x_veins_modules_mac_sigRetriesExceeded
scalar World.node[84].nic.mac1609_4 sentAcks:count 0
attr source org_car2x_veins_modules_mac_sigSentAck
scalar World.node[84].nic.mac1609_4 sentPackets:count 1234
attr source org_car2x_veins_modules_mac_sigSentPacket
scalar World.node[84].nic.mac1609_4 collisions:count 0
attr source org_car2x_veins_modules_mac_sigCollision
scalar World.node[84].nic.mac1609_4 channelBusy:timeavg 0.16033992319491
attr source org_car2x_veins_modules_mac_sigChannelBusy
scalar World.node[87].appl.middleware.DenService transmission:count 720
attr source DenmSent
scalar World.node[87].appl.middleware.DenService reception:count 62816
attr source DenmReceived
scalar World.node[87].nic.phy80211p busyTime 0.15809288203224
scalar World.node[87].nic.mac1609_4 ReceivedUnicastPackets 0
scalar World.node[87].nic.mac1609_4 ReceivedBroadcasts 68925
scalar World.node[87].nic.mac1609_4 SentPackets 1161
scalar World.node[87].nic.mac1609_4 SentAcknowledgements 0
scalar World.node[87].nic.mac1609_4 RetriesExceeded 0
scalar World.node[87].nic.mac1609_4 SNIRLostPackets 1650
scalar World.node[87].nic.mac1609_4 RXTXLostPackets 0
scalar World.node[87].nic.mac1609_4 TotalLostPackets 1650
scalar World.node[87].nic.mac1609_4 DroppedPacketsInMac 0
scalar World.node[87].nic.mac1609_4 TooLittleTime 0
scalar World.node[87].nic.mac1609_4 TimesIntoBackoff 1190
scalar World.node[87].nic.mac1609_4 SlotsBackoff 4853
scalar World.node[87].nic.mac1609_4 NumInternalContention 0
scalar World.node[87].nic.mac1609_4 totalBusyTime 14.649042675713
scalar World.node[87].nic.mac1609_4 retriesExceeded:count 0
attr source org_car2x_veins_modules_mac_sigRetriesExceeded
scalar World.node[87].nic.mac1609_4 sentAcks:count 0
attr source org_car2x_veins_modules_mac_sigSentAck
scalar World.node[87].nic.mac1609_4 sentPackets:count 1161
attr source org_car2x_veins_modules_mac_sigSentPacket
scalar World.node[87].nic.mac1609_4 collisions:count 0
attr source org_car2x_veins_modules_mac_sigCollision
scalar World.node[87].nic.mac1609_4 channelBusy:timeavg 0.15859855406812
attr source org_car2x_veins_modules_mac_sigChannelBusy
scalar World.node[98].appl.middleware.DenService transmission:count 682
attr source DenmSent
scalar World.node[98].appl.middleware.DenService reception:count 52030
attr source DenmReceived
scalar World.node[98].nic.phy80211p busyTime 0.15385977610837
scalar World.node[98].nic.mac1609_4 ReceivedUnicastPackets 0
scalar World.node[98].nic.mac1609_4 ReceivedBroadcasts 57146
scalar World.node[98].nic.mac1609_4 SentPackets 926
scalar World.node[98].nic.mac1609_4 SentAcknowledgements 0
scalar World.node[98].nic.mac1609_4 RetriesExceeded 0
scalar World.node[98].nic.mac1609_4 SNIRLostPackets 991
scalar World.node[98].nic.mac1609_4 RXTXLostPackets 4
scalar World.node[98].nic.mac1609_4 TotalLostPackets 995
scalar World.node[98].nic.mac1609_4 DroppedPacketsInMac 0
scalar World.node[98].nic.mac1609_4 TooLittleTime 0
scalar World.node[98].nic.mac1609_4 TimesIntoBackoff 993
scalar World.node[98].nic.mac1609_4 SlotsBackoff 4223
scalar World.node[98].nic.mac1609_4 NumInternalContention 0
scalar World.node[98].nic.mac1609_4 totalBusyTime 12.102772109223
scalar World.node[98].nic.mac1609_4 retriesExceeded:count 0
attr source org_car2x_veins_modules_mac_sigRetriesExceeded
scalar World.node[98].nic.mac1609_4 sentAcks:count 0
attr source org_car2x_veins_modules_mac_sigSentAck
scalar World.node[98].nic.mac1609_4 sentPackets:count 926
attr source org_car2x_veins_modules_mac_sigSentPacket
scalar World.node[98].nic.mac1609_4 collisions:count 0
attr source org_car2x_veins_modules_mac_sigCollision
scalar World.node[98].nic.mac1609_4 channelBusy:timeavg 0.15463728433802
attr source org_car2x_veins_modules_mac_sigChannelBusy
scalar World.node[96].appl.middleware.DenService transmission:count 390
attr source DenmSent
scalar World.node[96].appl.middleware.DenService reception:count 55389
attr source DenmReceived
scalar World.node[96].nic.phy80211p busyTime 0.15646968908721
scalar World.node[96].nic.mac1609_4 ReceivedUnicastPackets 0
scalar World.node[96].nic.mac1609_4 ReceivedBroadcasts 60731
scalar World.node[96].nic.mac1609_4 SentPackets 1027
scalar World.node[96].nic.mac1609_4 SentAcknowledgements 0
scalar World.node[96].nic.mac1609_4 RetriesExceeded 0
scalar World.node[96].nic.mac1609_4 SNIRLostPackets 1553
scalar World.node[96].nic.mac1609_4 RXTXLostPackets 0
scalar World.node[96].nic.mac1609_4 TotalLostPackets 1553
scalar World.node[96].nic.mac1609_4 DroppedPacketsInMac 0
scalar World.node[96].nic.mac1609_4 TooLittleTime 0
scalar World.node[96].nic.mac1609_4 TimesIntoBackoff 1036
scalar World.node[96].nic.mac1609_4 SlotsBackoff 4480
scalar World.node[96].nic.mac1609_4 NumInternalContention 0
scalar World.node[96].nic.mac1609_4 totalBusyTime 12.911646236879
scalar World.node[96].nic.mac1609_4 retriesExceeded:count 0
attr source org_car2x_veins_modules_mac_sigRetriesExceeded
scalar World.node[96].nic.mac1609_4 sentAcks:count 0
attr source org_car2x_veins_modules_mac_sigSentAck
scalar World.node[96].nic.mac1609_4 sentPackets:count 1027
attr source org_car2x_veins_modules_mac_sigSentPacket
scalar World.node[96].nic.mac1609_4 collisions:count 0
attr source org_car2x_veins_modules_mac_sigCollision
scalar World.node[96].nic.mac1609_4 channelBusy:timeavg 0.15676027461573
attr source org_car2x_veins_modules_mac_sigChannelBusy
scalar World.node[104].appl.middleware.DenService transmission:count 474
attr source DenmSent
scalar World.node[104].appl.middleware.DenService reception:count 49090
attr source DenmReceived
scalar World.node[104].nic.phy80211p busyTime 0.15200532326694
scalar World.node[104].nic.mac1609_4 ReceivedUnicastPackets 0
scalar World.node[104].nic.mac1609_4 ReceivedBroadcasts 53719
scalar World.node[104].nic.mac1609_4 SentPackets 863
scalar World.node[104].nic.mac1609_4 SentAcknowledgements 0
scalar World.node[104].nic.mac1609_4 RetriesExceeded 0
scalar World.node[104].nic.mac1609_4 SNIRLostPackets 927
scalar World.node[104].nic.mac1609_4 RXTXLostPackets 1
scalar World.node[104].nic.mac1609_4 TotalLostPackets 928
scalar World.node[104].nic.mac1609_4 DroppedPacketsInMac 0
scalar World.node[104].nic.mac1609_4 TooLittleTime 0
scalar World.node[104].nic.mac1609_4 TimesIntoBackoff 1387
scalar World.node[104].nic.mac1609_4 SlotsBackoff 6181
scalar World.node[104].nic.mac1609_4 NumInternalContention 0
scalar World.node[104].nic.mac1609_4 totalBusyTime 11.37377373724
scalar World.node[104].nic.mac1609_4 retriesExceeded:count 0
attr source org_car2x_veins_modules_mac_sigRetriesExceeded
scalar World.node[104].nic.mac1609_4 sentAcks:count 0
attr source org_car2x_veins_modules_mac_sigSentAck
scalar World.node[104].nic.mac1609_4 sentPackets:count 863
attr source org_car2x_veins_modules_mac_sigSentPacket
scalar World.node[104].nic.mac1609_4 collisions:count 0
attr source org_car2x_veins_modules_mac_sigCollision
scalar World.node[104].nic.mac1609_4 channelBusy:timeavg 0.15273873270579
attr source org_car2x_veins_modules_mac_sigChannelBusy

