version 2
run veins-0-20250129-22:43:09-193387
attr configname veins
attr datetime 20250129-22:43:09
attr experiment veins
attr inifile omnetpp.ini
attr iterationvars ""
attr iterationvarsf ""
attr measurement ""
attr network artery.veins.World
attr processid 193387
attr repetition 0
attr replication #0
attr resultdir results
attr runnumber 0
attr seedset 0
param *.playgroundSizeX 2000m
param *.playgroundSizeY 1200m
param *.playgroundSizeZ 50m
param *.connectionManager.maxInterfDist 500m
param *.connectionManager.sendDirect true
param *.connectionManager.coreDebug false
param *.node[*].nic.mac1609_4.txPower 200mW
param *.node[*].nic.phy80211p.decider "xmldoc(\"config.xml\")"
param *.node[*].nic.phy80211p.analogueModels "xmldoc(\"config.xml\")"
param *.node[*].appl.middleware.updateInterval 0.1s
param *.node[*].appl.middleware.datetime "\"2025-03-10 12:00:00\""
param *.node[*].appl.middleware.services "xmldoc(\"services.xml\")"
param *.node[*].appl.middleware.DenService.useCases "xmldoc(\"den-use-cases.xml\")"
param *.withStoryboard true
param *.storyboard.python "\"demo\""
param *.traci.launcher.additionalOptions "\"--log-buffered --log-file=sumo_warnings.log\""
param *.traci.core.version -1
param *.traci.launcher.typename "\"PosixLauncher\""
param *.traci.launcher.sumocfg "\"Slott.sumo.cfg\""
param *.traci.launcher.sumo "\"sumo-gui\""
param *.node[*].wlan[*].typename "\"VanetNic\""
param *.node[*].wlan[*].radio.channelNumber 180
param *.node[*].wlan[*].radio.carrierFrequency "5.9 GHz"
param *.node[*].wlan[*].radio.transmitter.power "200 mW"
param *.node[*].middleware.updateInterval 0.1s
param *.node[*].middleware.datetime "\"2025-03-10 12:00:00\""
param *.node[*].middleware.services "xmldoc(\"services.xml\")"
param *.node[*].middleware.DenService.useCases "xmldoc(\"den-use-cases.xml\")"

scalar World.traci.launcher port 37179
scalar World.node[12].appl.middleware.DenService transmission:count 12
attr source DenmSent
scalar World.node[12].appl.middleware.DenService reception:count 2616
attr source DenmReceived
scalar World.node[12].nic.phy80211p busyTime 0.05789734513274
scalar World.node[12].nic.mac1609_4 ReceivedUnicastPackets 0
scalar World.node[12].nic.mac1609_4 ReceivedBroadcasts 3069
scalar World.node[12].nic.mac1609_4 SentPackets 188
scalar World.node[12].nic.mac1609_4 SentAcknowledgements 0
scalar World.node[12].nic.mac1609_4 RetriesExceeded 0
scalar World.node[12].nic.mac1609_4 SNIRLostPackets 0
scalar World.node[12].nic.mac1609_4 RXTXLostPackets 0
scalar World.node[12].nic.mac1609_4 TotalLostPackets 0
scalar World.node[12].nic.mac1609_4 DroppedPacketsInMac 0
scalar World.node[12].nic.mac1609_4 TooLittleTime 0
scalar World.node[12].nic.mac1609_4 TimesIntoBackoff 188
scalar World.node[12].nic.mac1609_4 SlotsBackoff 1360
scalar World.node[12].nic.mac1609_4 NumInternalContention 0
scalar World.node[12].nic.mac1609_4 totalBusyTime 0.694652
scalar World.node[12].nic.mac1609_4 retriesExceeded:count 0
attr source org_car2x_veins_modules_mac_sigRetriesExceeded
scalar World.node[12].nic.mac1609_4 sentAcks:count 0
attr source org_car2x_veins_modules_mac_sigSentAck
scalar World.node[12].nic.mac1609_4 sentPackets:count 188
attr source org_car2x_veins_modules_mac_sigSentPacket
scalar World.node[12].nic.mac1609_4 collisions:count 0
attr source org_car2x_veins_modules_mac_sigCollision
scalar World.node[12].nic.mac1609_4 channelBusy:timeavg 0.061473628318581
attr source org_car2x_veins_modules_mac_sigChannelBusy
scalar World.node[4].appl.middleware.DenService transmission:count 107
attr source DenmSent
scalar World.node[4].appl.middleware.DenService reception:count 2982
attr source DenmReceived
scalar World.node[4].nic.phy80211p busyTime 0.041783461538459
scalar World.node[4].nic.mac1609_4 ReceivedUnicastPackets 0
scalar World.node[4].nic.mac1609_4 ReceivedBroadcasts 4001
scalar World.node[4].nic.mac1609_4 SentPackets 246
scalar World.node[4].nic.mac1609_4 SentAcknowledgements 0
scalar World.node[4].nic.mac1609_4 RetriesExceeded 0
scalar World.node[4].nic.mac1609_4 SNIRLostPackets 0
scalar World.node[4].nic.mac1609_4 RXTXLostPackets 0
scalar World.node[4].nic.mac1609_4 TotalLostPackets 0
scalar World.node[4].nic.mac1609_4 DroppedPacketsInMac 0
scalar World.node[4].nic.mac1609_4 TooLittleTime 0
scalar World.node[4].nic.mac1609_4 TimesIntoBackoff 246
scalar World.node[4].nic.mac1609_4 SlotsBackoff 1165
scalar World.node[4].nic.mac1609_4 NumInternalContention 0
scalar World.node[4].nic.mac1609_4 totalBusyTime 0.921678
scalar World.node[4].nic.mac1609_4 retriesExceeded:count 0
attr source org_car2x_veins_modules_mac_sigRetriesExceeded
scalar World.node[4].nic.mac1609_4 sentAcks:count 0
attr source org_car2x_veins_modules_mac_sigSentAck
scalar World.node[4].nic.mac1609_4 sentPackets:count 246
attr source org_car2x_veins_modules_mac_sigSentPacket
scalar World.node[4].nic.mac1609_4 collisions:count 0
attr source org_car2x_veins_modules_mac_sigCollision
scalar World.node[4].nic.mac1609_4 channelBusy:timeavg 0.04431144230769
attr source org_car2x_veins_modules_mac_sigChannelBusy
scalar World.node[13].appl.middleware.DenService transmission:count 51
attr source DenmSent
scalar World.node[13].appl.middleware.DenService reception:count 3841
attr source DenmReceived
scalar World.node[13].nic.phy80211p busyTime 0.064884736842102
scalar World.node[13].nic.mac1609_4 ReceivedUnicastPackets 0
scalar World.node[13].nic.mac1609_4 ReceivedBroadcasts 4639
scalar World.node[13].nic.mac1609_4 SentPackets 252
scalar World.node[13].nic.mac1609_4 SentAcknowledgements 0
scalar World.node[13].nic.mac1609_4 RetriesExceeded 0
scalar World.node[13].nic.mac1609_4 SNIRLostPackets 13
scalar World.node[13].nic.mac1609_4 RXTXLostPackets 0
scalar World.node[13].nic.mac1609_4 TotalLostPackets 13
scalar World.node[13].nic.mac1609_4 DroppedPacketsInMac 0
scalar World.node[13].nic.mac1609_4 TooLittleTime 0
scalar World.node[13].nic.mac1609_4 TimesIntoBackoff 252
scalar World.node[13].nic.mac1609_4 SlotsBackoff 1649
scalar World.node[13].nic.mac1609_4 NumInternalContention 0
scalar World.node[13].nic.mac1609_4 totalBusyTime 1.039044
scalar World.node[13].nic.mac1609_4 retriesExceeded:count 0
attr source org_car2x_veins_modules_mac_sigRetriesExceeded
scalar World.node[13].nic.mac1609_4 sentAcks:count 0
attr source org_car2x_veins_modules_mac_sigSentAck
scalar World.node[13].nic.mac1609_4 sentPackets:count 252
attr source org_car2x_veins_modules_mac_sigSentPacket
scalar World.node[13].nic.mac1609_4 collisions:count 0
attr source org_car2x_veins_modules_mac_sigCollision
scalar World.node[13].nic.mac1609_4 channelBusy:timeavg 0.068358157894733
attr source org_car2x_veins_modules_mac_sigChannelBusy
scalar World.node[28].appl.middleware.DenService transmission:count 0
attr source DenmSent
scalar World.node[28].appl.middleware.DenService reception:count 769
attr source DenmReceived
scalar World.node[28].nic.phy80211p busyTime 0.087961904761906
scalar World.node[28].nic.mac1609_4 ReceivedUnicastPackets 0
scalar World.node[28].nic.mac1609_4 ReceivedBroadcasts 876
scalar World.node[28].nic.mac1609_4 SentPackets 34
scalar World.node[28].nic.mac1609_4 SentAcknowledgements 0
scalar World.node[28].nic.mac1609_4 RetriesExceeded 0
scalar World.node[28].nic.mac1609_4 SNIRLostPackets 3
scalar World.node[28].nic.mac1609_4 RXTXLostPackets 0
scalar World.node[28].nic.mac1609_4 TotalLostPackets 3
scalar World.node[28].nic.mac1609_4 DroppedPacketsInMac 0
scalar World.node[28].nic.mac1609_4 TooLittleTime 0
scalar World.node[28].nic.mac1609_4 TimesIntoBackoff 34
scalar World.node[28].nic.mac1609_4 SlotsBackoff 245
scalar World.node[28].nic.mac1609_4 NumInternalContention 0
scalar World.node[28].nic.mac1609_4 totalBusyTime 0.19169
scalar World.node[28].nic.mac1609_4 retriesExceeded:count 0
attr source org_car2x_veins_modules_mac_sigRetriesExceeded
scalar World.node[28].nic.mac1609_4 sentAcks:count 0
attr source org_car2x_veins_modules_mac_sigSentAck
scalar World.node[28].nic.mac1609_4 sentPackets:count 34
attr source org_car2x_veins_modules_mac_sigSentPacket
scalar World.node[28].nic.mac1609_4 collisions:count 0
attr source org_car2x_veins_modules_mac_sigCollision
scalar World.node[28].nic.mac1609_4 channelBusy:timeavg 0.091280952380954
attr source org_car2x_veins_modules_mac_sigChannelBusy
scalar World.node[20].appl.middleware.DenService transmission:count 34
attr source DenmSent
scalar World.node[20].appl.middleware.DenService reception:count 4851
attr source DenmReceived
scalar World.node[20].nic.phy80211p busyTime 0.087406222222216
scalar World.node[20].nic.mac1609_4 ReceivedUnicastPackets 0
scalar World.node[20].nic.mac1609_4 ReceivedBroadcasts 5574
scalar World.node[20].nic.mac1609_4 SentPackets 224
scalar World.node[20].nic.mac1609_4 SentAcknowledgements 0
scalar World.node[20].nic.mac1609_4 RetriesExceeded 0
scalar World.node[20].nic.mac1609_4 SNIRLostPackets 39
scalar World.node[20].nic.mac1609_4 RXTXLostPackets 0
scalar World.node[20].nic.mac1609_4 TotalLostPackets 39
scalar World.node[20].nic.mac1609_4 DroppedPacketsInMac 0
scalar World.node[20].nic.mac1609_4 TooLittleTime 0
scalar World.node[20].nic.mac1609_4 TimesIntoBackoff 224
scalar World.node[20].nic.mac1609_4 SlotsBackoff 1504
scalar World.node[20].nic.mac1609_4 NumInternalContention 0
scalar World.node[20].nic.mac1609_4 totalBusyTime 1.22236
scalar World.node[20].nic.mac1609_4 retriesExceeded:count 0
attr source org_car2x_veins_modules_mac_sigRetriesExceeded
scalar World.node[20].nic.mac1609_4 sentAcks:count 0
attr source org_car2x_veins_modules_mac_sigSentAck
scalar World.node[20].nic.mac1609_4 sentPackets:count 224
attr source org_car2x_veins_modules_mac_sigSentPacket
scalar World.node[20].nic.mac1609_4 collisions:count 0
attr source org_car2x_veins_modules_mac_sigCollision
scalar World.node[20].nic.mac1609_4 channelBusy:timeavg 0.090545185185179
attr source org_car2x_veins_modules_mac_sigChannelBusy
scalar World.node[14].appl.middleware.DenService transmission:count 90
attr source DenmSent
scalar World.node[14].appl.middleware.DenService reception:count 6965
attr source DenmReceived
scalar World.node[14].nic.phy80211p busyTime 0.078608430493267
scalar World.node[14].nic.mac1609_4 ReceivedUnicastPackets 0
scalar World.node[14].nic.mac1609_4 ReceivedBroadcasts 8263
scalar World.node[14].nic.mac1609_4 SentPackets 371
scalar World.node[14].nic.mac1609_4 SentAcknowledgements 0
scalar World.node[14].nic.mac1609_4 RetriesExceeded 0
scalar World.node[14].nic.mac1609_4 SNIRLostPackets 39
scalar World.node[14].nic.mac1609_4 RXTXLostPackets 0
scalar World.node[14].nic.mac1609_4 TotalLostPackets 39
scalar World.node[14].nic.mac1609_4 DroppedPacketsInMac 0
scalar World.node[14].nic.mac1609_4 TooLittleTime 0
scalar World.node[14].nic.mac1609_4 TimesIntoBackoff 371
scalar World.node[14].nic.mac1609_4 SlotsBackoff 1927
scalar World.node[14].nic.mac1609_4 NumInternalContention 0
scalar World.node[14].nic.mac1609_4 totalBusyTime 1.824987704901
scalar World.node[14].nic.mac1609_4 retriesExceeded:count 0
attr source org_car2x_veins_modules_mac_sigRetriesExceeded
scalar World.node[14].nic.mac1609_4 sentAcks:count 0
attr source org_car2x_veins_modules_mac_sigSentAck
scalar World.node[14].nic.mac1609_4 sentPackets:count 371
attr source org_car2x_veins_modules_mac_sigSentPacket
scalar World.node[14].nic.mac1609_4 collisions:count 0
attr source org_car2x_veins_modules_mac_sigCollision
scalar World.node[14].nic.mac1609_4 channelBusy:timeavg 0.081838013672683
attr source org_car2x_veins_modules_mac_sigChannelBusy
scalar World.node[40].appl.middleware.DenService transmission:count 0
attr source DenmSent
scalar World.node[40].appl.middleware.DenService reception:count 46
attr source DenmReceived
scalar World.node[40].nic.phy80211p busyTime 0.1164
scalar World.node[40].nic.mac1609_4 ReceivedUnicastPackets 0
scalar World.node[40].nic.mac1609_4 ReceivedBroadcasts 53
scalar World.node[40].nic.mac1609_4 SentPackets 1
scalar World.node[40].nic.mac1609_4 SentAcknowledgements 0
scalar World.node[40].nic.mac1609_4 RetriesExceeded 0
scalar World.node[40].nic.mac1609_4 SNIRLostPackets 0
scalar World.node[40].nic.mac1609_4 RXTXLostPackets 0
scalar World.node[40].nic.mac1609_4 TotalLostPackets 0
scalar World.node[40].nic.mac1609_4 DroppedPacketsInMac 0
scalar World.node[40].nic.mac1609_4 TooLittleTime 0
scalar World.node[40].nic.mac1609_4 TimesIntoBackoff 1
scalar World.node[40].nic.mac1609_4 SlotsBackoff 9
scalar World.node[40].nic.mac1609_4 NumInternalContention 0
scalar World.node[40].nic.mac1609_4 totalBusyTime 0.011841
scalar World.node[40].nic.mac1609_4 retriesExceeded:count 0
attr source org_car2x_veins_modules_mac_sigRetriesExceeded
scalar World.node[40].nic.mac1609_4 sentAcks:count 0
attr source org_car2x_veins_modules_mac_sigSentAck
scalar World.node[40].nic.mac1609_4 sentPackets:count 1
attr source org_car2x_veins_modules_mac_sigSentPacket
scalar World.node[40].nic.mac1609_4 collisions:count 0
attr source org_car2x_veins_modules_mac_sigCollision
scalar World.node[40].nic.mac1609_4 channelBusy:timeavg 0.11841
attr source org_car2x_veins_modules_mac_sigChannelBusy
scalar World.node[5].appl.middleware.DenService transmission:count 190
attr source DenmSent
scalar World.node[5].appl.middleware.DenService reception:count 11474
attr source DenmReceived
scalar World.node[5].nic.phy80211p busyTime 0.07398138613861
scalar World.node[5].nic.mac1609_4 ReceivedUnicastPackets 0
scalar World.node[5].nic.mac1609_4 ReceivedBroadcasts 14051
scalar World.node[5].nic.mac1609_4 SentPackets 593
scalar World.node[5].nic.mac1609_4 SentAcknowledgements 0
scalar World.node[5].nic.mac1609_4 RetriesExceeded 0
scalar World.node[5].nic.mac1609_4 SNIRLostPackets 53
scalar World.node[5].nic.mac1609_4 RXTXLostPackets 0
scalar World.node[5].nic.mac1609_4 TotalLostPackets 53
scalar World.node[5].nic.mac1609_4 DroppedPacketsInMac 0
scalar World.node[5].nic.mac1609_4 TooLittleTime 0
scalar World.node[5].nic.mac1609_4 TimesIntoBackoff 612
scalar World.node[5].nic.mac1609_4 SlotsBackoff 2519
scalar World.node[5].nic.mac1609_4 NumInternalContention 0
scalar World.node[5].nic.mac1609_4 totalBusyTime 3.10601834592
scalar World.node[5].nic.mac1609_4 retriesExceeded:count 0
attr source org_car2x_veins_modules_mac_sigRetriesExceeded
scalar World.node[5].nic.mac1609_4 sentAcks:count 0
attr source org_car2x_veins_modules_mac_sigSentAck
scalar World.node[5].nic.mac1609_4 sentPackets:count 593
attr source org_car2x_veins_modules_mac_sigSentPacket
scalar World.node[5].nic.mac1609_4 collisions:count 0
attr source org_car2x_veins_modules_mac_sigCollision
scalar World.node[5].nic.mac1609_4 channelBusy:timeavg 0.076881642225739
attr source org_car2x_veins_modules_mac_sigChannelBusy
scalar World.node[27].appl.middleware.DenService transmission:count 0
attr source DenmSent
scalar World.node[27].appl.middleware.DenService reception:count 10974
attr source DenmReceived
scalar World.node[27].nic.phy80211p busyTime 0.11140556521738
scalar World.node[27].nic.mac1609_4 ReceivedUnicastPackets 0
scalar World.node[27].nic.mac1609_4 ReceivedBroadcasts 12237
scalar World.node[27].nic.mac1609_4 SentPackets 382
scalar World.node[27].nic.mac1609_4 SentAcknowledgements 0
scalar World.node[27].nic.mac1609_4 RetriesExceeded 0
scalar World.node[27].nic.mac1609_4 SNIRLostPackets 27
scalar World.node[27].nic.mac1609_4 RXTXLostPackets 0
scalar World.node[27].nic.mac1609_4 TotalLostPackets 27
scalar World.node[27].nic.mac1609_4 DroppedPacketsInMac 0
scalar World.node[27].nic.mac1609_4 TooLittleTime 0
scalar World.node[27].nic.mac1609_4 TimesIntoBackoff 382
scalar World.node[27].nic.mac1609_4 SlotsBackoff 2741
scalar World.node[27].nic.mac1609_4 NumInternalContention 0
scalar World.node[27].nic.mac1609_4 totalBusyTime 2.641269718905
scalar World.node[27].nic.mac1609_4 retriesExceeded:count 0
attr source org_car2x_veins_modules_mac_sigRetriesExceeded
scalar World.node[27].nic.mac1609_4 sentAcks:count 0
attr source org_car2x_veins_modules_mac_sigSentAck
scalar World.node[27].nic.mac1609_4 sentPackets:count 382
attr source org_car2x_veins_modules_mac_sigSentPacket
scalar World.node[27].nic.mac1609_4 collisions:count 0
attr source org_car2x_veins_modules_mac_sigCollision
scalar World.node[27].nic.mac1609_4 channelBusy:timeavg 0.11483781386543
attr source org_car2x_veins_modules_mac_sigChannelBusy
scalar World.node[42].appl.middleware.DenService transmission:count 1
attr source DenmSent
scalar World.node[42].appl.middleware.DenService reception:count 5994
attr source DenmReceived
scalar World.node[42].nic.phy80211p busyTime 0.13491999999999
scalar World.node[42].nic.mac1609_4 ReceivedUnicastPackets 0
scalar World.node[42].nic.mac1609_4 ReceivedBroadcasts 6613
scalar World.node[42].nic.mac1609_4 SentPackets 169
scalar World.node[42].nic.mac1609_4 SentAcknowledgements 0
scalar World.node[42].nic.mac1609_4 RetriesExceeded 0
scalar World.node[42].nic.mac1609_4 SNIRLostPackets 8
scalar World.node[42].nic.mac1609_4 RXTXLostPackets 0
scalar World.node[42].nic.mac1609_4 TotalLostPackets 8
scalar World.node[42].nic.mac1609_4 DroppedPacketsInMac 0
scalar World.node[42].nic.mac1609_4 TooLittleTime 0
scalar World.node[42].nic.mac1609_4 TimesIntoBackoff 169
scalar World.node[42].nic.mac1609_4 SlotsBackoff 1197
scalar World.node[42].nic.mac1609_4 NumInternalContention 0
scalar World.node[42].nic.mac1609_4 totalBusyTime 1.411897
scalar World.node[42].nic.mac1609_4 retriesExceeded:count 0
attr source org_car2x_veins_modules_mac_sigRetriesExceeded
scalar World.node[42].nic.mac1609_4 sentAcks:count 0
attr source org_car2x_veins_modules_mac_sigSentAck
scalar World.node[42].nic.mac1609_4 sentPackets:count 169
attr source org_car2x_veins_modules_mac_sigSentPacket
scalar World.node[42].nic.mac1609_4 collisions:count 0
attr source org_car2x_veins_modules_mac_sigCollision
scalar World.node[42].nic.mac1609_4 channelBusy:timeavg 0.13842127450979
attr source org_car2x_veins_modules_mac_sigChannelBusy
scalar World.node[15].appl.middleware.DenService transmission:count 304
attr source DenmSent
scalar World.node[15].appl.middleware.DenService reception:count 17614
attr source DenmReceived
scalar World.node[15].nic.phy80211p busyTime 0.10368888888889
scalar World.node[15].nic.mac1609_4 ReceivedUnicastPackets 0
scalar World.node[15].nic.mac1609_4 ReceivedBroadcasts 19983
scalar World.node[15].nic.mac1609_4 SentPackets 674
scalar World.node[15].nic.mac1609_4 SentAcknowledgements 0
scalar World.node[15].nic.mac1609_4 RetriesExceeded 0
scalar World.node[15].nic.mac1609_4 SNIRLostPackets 59
scalar World.node[15].nic.mac1609_4 RXTXLostPackets 0
scalar World.node[15].nic.mac1609_4 TotalLostPackets 59
scalar World.node[15].nic.mac1609_4 DroppedPacketsInMac 0
scalar World.node[15].nic.mac1609_4 TooLittleTime 0
scalar World.node[15].nic.mac1609_4 TimesIntoBackoff 1348
scalar World.node[15].nic.mac1609_4 SlotsBackoff 6186
scalar World.node[15].nic.mac1609_4 NumInternalContention 0
scalar World.node[15].nic.mac1609_4 totalBusyTime 4.331259096619
scalar World.node[15].nic.mac1609_4 retriesExceeded:count 0
attr source org_car2x_veins_modules_mac_sigRetriesExceeded
scalar World.node[15].nic.mac1609_4 sentAcks:count 0
attr source org_car2x_veins_modules_mac_sigSentAck
scalar World.node[15].nic.mac1609_4 sentPackets:count 674
attr source org_car2x_veins_modules_mac_sigSentPacket
scalar World.node[15].nic.mac1609_4 collisions:count 0
attr source org_car2x_veins_modules_mac_sigCollision
scalar World.node[15].nic.mac1609_4 channelBusy:timeavg 0.10694466905233
attr source org_car2x_veins_modules_mac_sigChannelBusy
scalar World.node[1].appl.middleware.DenService transmission:count 300
attr source DenmSent
scalar World.node[1].appl.middleware.DenService reception:count 18599
attr source DenmReceived
scalar World.node[1].nic.phy80211p busyTime 0.084740875656766
scalar World.node[1].nic.mac1609_4 ReceivedUnicastPackets 0
scalar World.node[1].nic.mac1609_4 ReceivedBroadcasts 22909
scalar World.node[1].nic.mac1609_4 SentPackets 812
scalar World.node[1].nic.mac1609_4 SentAcknowledgements 0
scalar World.node[1].nic.mac1609_4 RetriesExceeded 0
scalar World.node[1].nic.mac1609_4 SNIRLostPackets 78
scalar World.node[1].nic.mac1609_4 RXTXLostPackets 0
scalar World.node[1].nic.mac1609_4 TotalLostPackets 78
scalar World.node[1].nic.mac1609_4 DroppedPacketsInMac 0
scalar World.node[1].nic.mac1609_4 TooLittleTime 0
scalar World.node[1].nic.mac1609_4 TimesIntoBackoff 812
scalar World.node[1].nic.mac1609_4 SlotsBackoff 2993
scalar World.node[1].nic.mac1609_4 NumInternalContention 0
scalar World.node[1].nic.mac1609_4 totalBusyTime 4.996996
scalar World.node[1].nic.mac1609_4 retriesExceeded:count 0
attr source org_car2x_veins_modules_mac_sigRetriesExceeded
scalar World.node[1].nic.mac1609_4 sentAcks:count 0
attr source org_car2x_veins_modules_mac_sigSentAck
scalar World.node[1].nic.mac1609_4 sentPackets:count 812
attr source org_car2x_veins_modules_mac_sigSentPacket
scalar World.node[1].nic.mac1609_4 collisions:count 0
attr source org_car2x_veins_modules_mac_sigCollision
scalar World.node[1].nic.mac1609_4 channelBusy:timeavg 0.087513064798627
attr source org_car2x_veins_modules_mac_sigChannelBusy
scalar World.node[3].appl.middleware.DenService transmission:count 453
attr source DenmSent
scalar World.node[3].appl.middleware.DenService reception:count 19418
attr source DenmReceived
scalar World.node[3].nic.phy80211p busyTime 0.086957978339374
scalar World.node[3].nic.mac1609_4 ReceivedUnicastPackets 0
scalar World.node[3].nic.mac1609_4 ReceivedBroadcasts 22851
scalar World.node[3].nic.mac1609_4 SentPackets 812
scalar World.node[3].nic.mac1609_4 SentAcknowledgements 0
scalar World.node[3].nic.mac1609_4 RetriesExceeded 0
scalar World.node[3].nic.mac1609_4 SNIRLostPackets 59
scalar World.node[3].nic.mac1609_4 RXTXLostPackets 0
scalar World.node[3].nic.mac1609_4 TotalLostPackets 59
scalar World.node[3].nic.mac1609_4 DroppedPacketsInMac 0
scalar World.node[3].nic.mac1609_4 TooLittleTime 0
scalar World.node[3].nic.mac1609_4 TimesIntoBackoff 1593
scalar World.node[3].nic.mac1609_4 SlotsBackoff 6049
scalar World.node[3].nic.mac1609_4 NumInternalContention 0
scalar World.node[3].nic.mac1609_4 totalBusyTime 4.975892
scalar World.node[3].nic.mac1609_4 retriesExceeded:count 0
attr source org_car2x_veins_modules_mac_sigRetriesExceeded
scalar World.node[3].nic.mac1609_4 sentAcks:count 0
attr source org_car2x_veins_modules_mac_sigSentAck
scalar World.node[3].nic.mac1609_4 sentPackets:count 812
attr source org_car2x_veins_modules_mac_sigSentPacket
scalar World.node[3].nic.mac1609_4 collisions:count 0
attr source org_car2x_veins_modules_mac_sigCollision
scalar World.node[3].nic.mac1609_4 channelBusy:timeavg 0.089817545126382
attr source org_car2x_veins_modules_mac_sigChannelBusy
scalar World.node[17].appl.middleware.DenService transmission:count 326
attr source DenmSent
scalar World.node[17].appl.middleware.DenService reception:count 19801
attr source DenmReceived
scalar World.node[17].nic.phy80211p busyTime 0.11107259953164
scalar World.node[17].nic.mac1609_4 ReceivedUnicastPackets 0
scalar World.node[17].nic.mac1609_4 ReceivedBroadcasts 22582
scalar World.node[17].nic.mac1609_4 SentPackets 711
scalar World.node[17].nic.mac1609_4 SentAcknowledgements 0
scalar World.node[17].nic.mac1609_4 RetriesExceeded 0
scalar World.node[17].nic.mac1609_4 SNIRLostPackets 100
scalar World.node[17].nic.mac1609_4 RXTXLostPackets 0
scalar World.node[17].nic.mac1609_4 TotalLostPackets 100
scalar World.node[17].nic.mac1609_4 DroppedPacketsInMac 0
scalar World.node[17].nic.mac1609_4 TooLittleTime 0
scalar World.node[17].nic.mac1609_4 TimesIntoBackoff 722
scalar World.node[17].nic.mac1609_4 SlotsBackoff 3378
scalar World.node[17].nic.mac1609_4 NumInternalContention 0
scalar World.node[17].nic.mac1609_4 totalBusyTime 4.876832073095
scalar World.node[17].nic.mac1609_4 retriesExceeded:count 0
attr source org_car2x_veins_modules_mac_sigRetriesExceeded
scalar World.node[17].nic.mac1609_4 sentAcks:count 0
attr source org_car2x_veins_modules_mac_sigSentAck
scalar World.node[17].nic.mac1609_4 sentPackets:count 711
attr source org_car2x_veins_modules_mac_sigSentPacket
scalar World.node[17].nic.mac1609_4 collisions:count 0
attr source org_car2x_veins_modules_mac_sigCollision
scalar World.node[17].nic.mac1609_4 channelBusy:timeavg 0.1142115239601
attr source org_car2x_veins_modules_mac_sigChannelBusy
scalar World.node[0].appl.middleware.DenService transmission:count 0
attr source DenmSent
scalar World.node[0].appl.middleware.DenService reception:count 22735
attr source DenmReceived
scalar World.node[0].nic.phy80211p busyTime 0.087311456310718
scalar World.node[0].nic.mac1609_4 ReceivedUnicastPackets 0
scalar World.node[0].nic.mac1609_4 ReceivedBroadcasts 25648
scalar World.node[0].nic.mac1609_4 SentPackets 884
scalar World.node[0].nic.mac1609_4 SentAcknowledgements 0
scalar World.node[0].nic.mac1609_4 RetriesExceeded 0
scalar World.node[0].nic.mac1609_4 SNIRLostPackets 104
scalar World.node[0].nic.mac1609_4 RXTXLostPackets 26
scalar World.node[0].nic.mac1609_4 TotalLostPackets 130
scalar World.node[0].nic.mac1609_4 DroppedPacketsInMac 0
scalar World.node[0].nic.mac1609_4 TooLittleTime 0
scalar World.node[0].nic.mac1609_4 TimesIntoBackoff 1062
scalar World.node[0].nic.mac1609_4 SlotsBackoff 8068
scalar World.node[0].nic.mac1609_4 NumInternalContention 0
scalar World.node[0].nic.mac1609_4 totalBusyTime 5.575588
scalar World.node[0].nic.mac1609_4 retriesExceeded:count 0
attr source org_car2x_veins_modules_mac_sigRetriesExceeded
scalar World.node[0].nic.mac1609_4 sentAcks:count 0
attr source org_car2x_veins_modules_mac_sigSentAck
scalar World.node[0].nic.mac1609_4 sentPackets:count 884
attr source org_car2x_veins_modules_mac_sigSentPacket
scalar World.node[0].nic.mac1609_4 collisions:count 0
attr source org_car2x_veins_modules_mac_sigCollision
scalar World.node[0].nic.mac1609_4 channelBusy:timeavg 0.090219870550204
attr source org_car2x_veins_modules_mac_sigChannelBusy
scalar World.node[37].appl.middleware.DenService transmission:count 208
attr source DenmSent
scalar World.node[37].appl.middleware.DenService reception:count 18921
attr source DenmReceived
scalar World.node[37].nic.phy80211p busyTime 0.14232517799354
scalar World.node[37].nic.mac1609_4 ReceivedUnicastPackets 0
scalar World.node[37].nic.mac1609_4 ReceivedBroadcasts 21089
scalar World.node[37].nic.mac1609_4 SentPackets 514
scalar World.node[37].nic.mac1609_4 SentAcknowledgements 0
scalar World.node[37].nic.mac1609_4 RetriesExceeded 0
scalar World.node[37].nic.mac1609_4 SNIRLostPackets 76
scalar World.node[37].nic.mac1609_4 RXTXLostPackets 0
scalar World.node[37].nic.mac1609_4 TotalLostPackets 76
scalar World.node[37].nic.mac1609_4 DroppedPacketsInMac 0
scalar World.node[37].nic.mac1609_4 TooLittleTime 0
scalar World.node[37].nic.mac1609_4 TimesIntoBackoff 559
scalar World.node[37].nic.mac1609_4 SlotsBackoff 2748
scalar World.node[37].nic.mac1609_4 NumInternalContention 0
scalar World.node[37].nic.mac1609_4 totalBusyTime 4.494434
scalar World.node[37].nic.mac1609_4 retriesExceeded:count 0
attr source org_car2x_veins_modules_mac_sigRetriesExceeded
scalar World.node[37].nic.mac1609_4 sentAcks:count 0
attr source org_car2x_veins_modules_mac_sigSentAck
scalar World.node[37].nic.mac1609_4 sentPackets:count 514
attr source org_car2x_veins_modules_mac_sigSentPacket
scalar World.node[37].nic.mac1609_4 collisions:count 0
attr source org_car2x_veins_modules_mac_sigCollision
scalar World.node[37].nic.mac1609_4 channelBusy:timeavg 0.14545093851135
attr source org_car2x_veins_modules_mac_sigChannelBusy
scalar World.node[32].appl.middleware.DenService transmission:count 285
attr source DenmSent
scalar World.node[32].appl.middleware.DenService reception:count 23422
attr source DenmReceived
scalar World.node[32].nic.phy80211p busyTime 0.14069803108815
scalar World.node[32].nic.mac1609_4 ReceivedUnicastPackets 0
scalar World.node[32].nic.mac1609_4 ReceivedBroadcasts 25920
scalar World.node[32].nic.mac1609_4 SentPackets 642
scalar World.node[32].nic.mac1609_4 SentAcknowledgements 0
scalar World.node[32].nic.mac1609_4 RetriesExceeded 0
scalar World.node[32].nic.mac1609_4 SNIRLostPackets 229
scalar World.node[32].nic.mac1609_4 RXTXLostPackets 12
scalar World.node[32].nic.mac1609_4 TotalLostPackets 241
scalar World.node[32].nic.mac1609_4 DroppedPacketsInMac 0
scalar World.node[32].nic.mac1609_4 TooLittleTime 0
scalar World.node[32].nic.mac1609_4 TimesIntoBackoff 722
scalar World.node[32].nic.mac1609_4 SlotsBackoff 3236
scalar World.node[32].nic.mac1609_4 NumInternalContention 0
scalar World.node[32].nic.mac1609_4 totalBusyTime 5.528611394575
scalar World.node[32].nic.mac1609_4 retriesExceeded:count 0
attr source org_car2x_veins_modules_mac_sigRetriesExceeded
scalar World.node[32].nic.mac1609_4 sentAcks:count 0
attr source org_car2x_veins_modules_mac_sigSentAck
scalar World.node[32].nic.mac1609_4 sentPackets:count 642
attr source org_car2x_veins_modules_mac_sigSentPacket
scalar World.node[32].nic.mac1609_4 collisions:count 0
attr source org_car2x_veins_modules_mac_sigCollision
scalar World.node[32].nic.mac1609_4 channelBusy:timeavg 0.14322827447092
attr source org_car2x_veins_modules_mac_sigChannelBusy
scalar World.node[61].appl.middleware.DenService transmission:count 2
attr source DenmSent
scalar World.node[61].appl.middleware.DenService reception:count 7126
attr source DenmReceived
scalar World.node[61].nic.phy80211p busyTime 0.16229203883494
scalar World.node[61].nic.mac1609_4 ReceivedUnicastPackets 0
scalar World.node[61].nic.mac1609_4 ReceivedBroadcasts 7710
scalar World.node[61].nic.mac1609_4 SentPackets 171
scalar World.node[61].nic.mac1609_4 SentAcknowledgements 0
scalar World.node[61].nic.mac1609_4 RetriesExceeded 0
scalar World.node[61].nic.mac1609_4 SNIRLostPackets 393
scalar World.node[61].nic.mac1609_4 RXTXLostPackets 8
scalar World.node[61].nic.mac1609_4 TotalLostPackets 401
scalar World.node[61].nic.mac1609_4 DroppedPacketsInMac 0
scalar World.node[61].nic.mac1609_4 TooLittleTime 0
scalar World.node[61].nic.mac1609_4 TimesIntoBackoff 342
scalar World.node[61].nic.mac1609_4 SlotsBackoff 2408
scalar World.node[61].nic.mac1609_4 NumInternalContention 0
scalar World.node[61].nic.mac1609_4 totalBusyTime 1.669458818919
scalar World.node[61].nic.mac1609_4 retriesExceeded:count 0
attr source org_car2x_veins_modules_mac_sigRetriesExceeded
scalar World.node[61].nic.mac1609_4 sentAcks:count 0
attr source org_car2x_veins_modules_mac_sigSentAck
scalar World.node[61].nic.mac1609_4 sentPackets:count 171
attr source org_car2x_veins_modules_mac_sigSentPacket
scalar World.node[61].nic.mac1609_4 collisions:count 0
attr source org_car2x_veins_modules_mac_sigCollision
scalar World.node[61].nic.mac1609_4 channelBusy:timeavg 0.16208338047756
attr source org_car2x_veins_modules_mac_sigChannelBusy
scalar World.node[10].appl.middleware.DenService transmission:count 530
attr source DenmSent
scalar World.node[10].appl.middleware.DenService reception:count 30629
attr source DenmReceived
scalar World.node[10].nic.phy80211p busyTime 0.11529432646602
scalar World.node[10].nic.mac1609_4 ReceivedUnicastPackets 0
scalar World.node[10].nic.mac1609_4 ReceivedBroadcasts 34598
scalar World.node[10].nic.mac1609_4 SentPackets 1030
scalar World.node[10].nic.mac1609_4 SentAcknowledgements 0
scalar World.node[10].nic.mac1609_4 RetriesExceeded 0
scalar World.node[10].nic.mac1609_4 SNIRLostPackets 253
scalar World.node[10].nic.mac1609_4 RXTXLostPackets 0
scalar World.node[10].nic.mac1609_4 TotalLostPackets 253
scalar World.node[10].nic.mac1609_4 DroppedPacketsInMac 0
scalar World.node[10].nic.mac1609_4 TooLittleTime 0
scalar World.node[10].nic.mac1609_4 TimesIntoBackoff 1034
scalar World.node[10].nic.mac1609_4 SlotsBackoff 4104
scalar World.node[10].nic.mac1609_4 NumInternalContention 0
scalar World.node[10].nic.mac1609_4 totalBusyTime 7.446718116983
scalar World.node[10].nic.mac1609_4 retriesExceeded:count 0
attr source org_car2x_veins_modules_mac_sigRetriesExceeded
scalar World.node[10].nic.mac1609_4 sentAcks:count 0
attr source org_car2x_veins_modules_mac_sigSentAck
scalar World.node[10].nic.mac1609_4 sentPackets:count 1030
attr source org_car2x_veins_modules_mac_sigSentPacket
scalar World.node[10].nic.mac1609_4 collisions:count 0
attr source org_car2x_veins_modules_mac_sigCollision
scalar World.node[10].nic.mac1609_4 channelBusy:timeavg 0.11801455019
attr source org_car2x_veins_modules_mac_sigChannelBusy
scalar World.node[9].appl.middleware.DenService transmission:count 546
attr source DenmSent
scalar World.node[9].appl.middleware.DenService reception:count 31042
attr source DenmReceived
scalar World.node[9].nic.phy80211p busyTime 0.11431035548696
scalar World.node[9].nic.mac1609_4 ReceivedUnicastPackets 0
scalar World.node[9].nic.mac1609_4 ReceivedBroadcasts 35118
scalar World.node[9].nic.mac1609_4 SentPackets 1054
scalar World.node[9].nic.mac1609_4 SentAcknowledgements 0
scalar World.node[9].nic.mac1609_4 RetriesExceeded 0
scalar World.node[9].nic.mac1609_4 SNIRLostPackets 300
scalar World.node[9].nic.mac1609_4 RXTXLostPackets 0
scalar World.node[9].nic.mac1609_4 TotalLostPackets 300
scalar World.node[9].nic.mac1609_4 DroppedPacketsInMac 0
scalar World.node[9].nic.mac1609_4 TooLittleTime 0
scalar World.node[9].nic.mac1609_4 TimesIntoBackoff 1981
scalar World.node[9].nic.mac1609_4 SlotsBackoff 7775
scalar World.node[9].nic.mac1609_4 NumInternalContention 0
scalar World.node[9].nic.mac1609_4 totalBusyTime 7.565591939408
scalar World.node[9].nic.mac1609_4 retriesExceeded:count 0
attr source org_car2x_veins_modules_mac_sigRetriesExceeded
scalar World.node[9].nic.mac1609_4 sentAcks:count 0
attr source org_car2x_veins_modules_mac_sigSentAck
scalar World.node[9].nic.mac1609_4 sentPackets:count 1054
attr source org_car2x_veins_modules_mac_sigSentPacket
scalar World.node[9].nic.mac1609_4 collisions:count 0
attr source org_car2x_veins_modules_mac_sigCollision
scalar World.node[9].nic.mac1609_4 channelBusy:timeavg 0.11693341482866
attr source org_car2x_veins_modules_mac_sigChannelBusy
scalar World.node[26].appl.middleware.DenService transmission:count 170
attr source DenmSent
scalar World.node[26].appl.middleware.DenService reception:count 23919
attr source DenmReceived
scalar World.node[26].nic.phy80211p busyTime 0.1156685477179
scalar World.node[26].nic.mac1609_4 ReceivedUnicastPackets 0
scalar World.node[26].nic.mac1609_4 ReceivedBroadcasts 26729
scalar World.node[26].nic.mac1609_4 SentPackets 802
scalar World.node[26].nic.mac1609_4 SentAcknowledgements 0
scalar World.node[26].nic.mac1609_4 RetriesExceeded 0
scalar World.node[26].nic.mac1609_4 SNIRLostPackets 115
scalar World.node[26].nic.mac1609_4 RXTXLostPackets 0
scalar World.node[26].nic.mac1609_4 TotalLostPackets 115
scalar World.node[26].nic.mac1609_4 DroppedPacketsInMac 0
scalar World.node[26].nic.mac1609_4 TooLittleTime 0
scalar World.node[26].nic.mac1609_4 TimesIntoBackoff 802
scalar World.node[26].nic.mac1609_4 SlotsBackoff 3503
scalar World.node[26].nic.mac1609_4 NumInternalContention 0
scalar World.node[26].nic.mac1609_4 totalBusyTime 5.725794446855
scalar World.node[26].nic.mac1609_4 retriesExceeded:count 0
attr source org_car2x_veins_modules_mac_sigRetriesExceeded
scalar World.node[26].nic.mac1609_4 sentAcks:count 0
attr source org_car2x_veins_modules_mac_sigSentAck
scalar World.node[26].nic.mac1609_4 sentPackets:count 802
attr source org_car2x_veins_modules_mac_sigSentPacket
scalar World.node[26].nic.mac1609_4 collisions:count 0
attr source org_car2x_veins_modules_mac_sigCollision
scalar World.node[26].nic.mac1609_4 channelBusy:timeavg 0.11879241590992
attr source org_car2x_veins_modules_mac_sigChannelBusy
scalar World.node[8].appl.middleware.DenService transmission:count 100
attr source DenmSent
scalar World.node[8].appl.middleware.DenService reception:count 32472
attr source DenmReceived
scalar World.node[8].nic.phy80211p busyTime 0.11526239067066
scalar World.node[8].nic.mac1609_4 ReceivedUnicastPackets 0
scalar World.node[8].nic.mac1609_4 ReceivedBroadcasts 37440
scalar World.node[8].nic.mac1609_4 SentPackets 1108
scalar World.node[8].nic.mac1609_4 SentAcknowledgements 0
scalar World.node[8].nic.mac1609_4 RetriesExceeded 0
scalar World.node[8].nic.mac1609_4 SNIRLostPackets 458
scalar World.node[8].nic.mac1609_4 RXTXLostPackets 0
scalar World.node[8].nic.mac1609_4 TotalLostPackets 458
scalar World.node[8].nic.mac1609_4 DroppedPacketsInMac 0
scalar World.node[8].nic.mac1609_4 TooLittleTime 0
scalar World.node[8].nic.mac1609_4 TimesIntoBackoff 1108
scalar World.node[8].nic.mac1609_4 SlotsBackoff 4494
scalar World.node[8].nic.mac1609_4 NumInternalContention 0
scalar World.node[8].nic.mac1609_4 totalBusyTime 8.054238025522
scalar World.node[8].nic.mac1609_4 retriesExceeded:count 0
attr source org_car2x_veins_modules_mac_sigRetriesExceeded
scalar World.node[8].nic.mac1609_4 sentAcks:count 0
attr source org_car2x_veins_modules_mac_sigSentAck
scalar World.node[8].nic.mac1609_4 sentPackets:count 1108
attr source org_car2x_veins_modules_mac_sigSentPacket
scalar World.node[8].nic.mac1609_4 collisions:count 0
attr source org_car2x_veins_modules_mac_sigCollision
scalar World.node[8].nic.mac1609_4 channelBusy:timeavg 0.11740871757331
attr source org_car2x_veins_modules_mac_sigChannelBusy
scalar World.node[11].appl.middleware.DenService transmission:count 0
attr source DenmSent
scalar World.node[11].appl.middleware.DenService reception:count 34016
attr source DenmReceived
scalar World.node[11].nic.phy80211p busyTime 0.12000036036047
scalar World.node[11].nic.mac1609_4 ReceivedUnicastPackets 0
scalar World.node[11].nic.mac1609_4 ReceivedBroadcasts 37682
scalar World.node[11].nic.mac1609_4 SentPackets 1105
scalar World.node[11].nic.mac1609_4 SentAcknowledgements 0
scalar World.node[11].nic.mac1609_4 RetriesExceeded 0
scalar World.node[11].nic.mac1609_4 SNIRLostPackets 757
scalar World.node[11].nic.mac1609_4 RXTXLostPackets 8
scalar World.node[11].nic.mac1609_4 TotalLostPackets 765
scalar World.node[11].nic.mac1609_4 DroppedPacketsInMac 0
scalar World.node[11].nic.mac1609_4 TooLittleTime 0
scalar World.node[11].nic.mac1609_4 TimesIntoBackoff 1564
scalar World.node[11].nic.mac1609_4 SlotsBackoff 11596
scalar World.node[11].nic.mac1609_4 NumInternalContention 0
scalar World.node[11].nic.mac1609_4 totalBusyTime 8.154851417439
scalar World.node[11].nic.mac1609_4 retriesExceeded:count 0
attr source org_car2x_veins_modules_mac_sigRetriesExceeded
scalar World.node[11].nic.mac1609_4 sentAcks:count 0
attr source org_car2x_veins_modules_mac_sigSentAck
scalar World.node[11].nic.mac1609_4 sentPackets:count 1105
attr source org_car2x_veins_modules_mac_sigSentPacket
scalar World.node[11].nic.mac1609_4 collisions:count 0
attr source org_car2x_veins_modules_mac_sigCollision
scalar World.node[11].nic.mac1609_4 channelBusy:timeavg 0.12244521647816
attr source org_car2x_veins_modules_mac_sigChannelBusy
scalar World.node[24].appl.middleware.DenService transmission:count 10
attr source DenmSent
scalar World.node[24].appl.middleware.DenService reception:count 31798
attr source DenmReceived
scalar World.node[24].nic.phy80211p busyTime 0.13694671641802
scalar World.node[24].nic.mac1609_4 ReceivedUnicastPackets 0
scalar World.node[24].nic.mac1609_4 ReceivedBroadcasts 34963
scalar World.node[24].nic.mac1609_4 SentPackets 892
scalar World.node[24].nic.mac1609_4 SentAcknowledgements 0
scalar World.node[24].nic.mac1609_4 RetriesExceeded 0
scalar World.node[24].nic.mac1609_4 SNIRLostPackets 420
scalar World.node[24].nic.mac1609_4 RXTXLostPackets 15
scalar World.node[24].nic.mac1609_4 TotalLostPackets 435
scalar World.node[24].nic.mac1609_4 DroppedPacketsInMac 0
scalar World.node[24].nic.mac1609_4 TooLittleTime 0
scalar World.node[24].nic.mac1609_4 TimesIntoBackoff 1076
scalar World.node[24].nic.mac1609_4 SlotsBackoff 7584
scalar World.node[24].nic.mac1609_4 NumInternalContention 0
scalar World.node[24].nic.mac1609_4 totalBusyTime 7.468541736545
scalar World.node[24].nic.mac1609_4 retriesExceeded:count 0
attr source org_car2x_veins_modules_mac_sigRetriesExceeded
scalar World.node[24].nic.mac1609_4 sentAcks:count 0
attr source org_car2x_veins_modules_mac_sigSentAck
scalar World.node[24].nic.mac1609_4 sentPackets:count 892
attr source org_car2x_veins_modules_mac_sigSentPacket
scalar World.node[24].nic.mac1609_4 collisions:count 0
attr source org_car2x_veins_modules_mac_sigCollision
scalar World.node[24].nic.mac1609_4 channelBusy:timeavg 0.13933846523416
attr source org_car2x_veins_modules_mac_sigChannelBusy
scalar World.node[33].appl.middleware.DenService transmission:count 355
attr source DenmSent
scalar World.node[33].appl.middleware.DenService reception:count 29100
attr source DenmReceived
scalar World.node[33].nic.phy80211p busyTime 0.14710877192993
scalar World.node[33].nic.mac1609_4 ReceivedUnicastPackets 0
scalar World.node[33].nic.mac1609_4 ReceivedBroadcasts 32047
scalar World.node[33].nic.mac1609_4 SentPackets 759
scalar World.node[33].nic.mac1609_4 SentAcknowledgements 0
scalar World.node[33].nic.mac1609_4 RetriesExceeded 0
scalar World.node[33].nic.mac1609_4 SNIRLostPackets 284
scalar World.node[33].nic.mac1609_4 RXTXLostPackets 40
scalar World.node[33].nic.mac1609_4 TotalLostPackets 324
scalar World.node[33].nic.mac1609_4 DroppedPacketsInMac 0
scalar World.node[33].nic.mac1609_4 TooLittleTime 0
scalar World.node[33].nic.mac1609_4 TimesIntoBackoff 1066
scalar World.node[33].nic.mac1609_4 SlotsBackoff 4351
scalar World.node[33].nic.mac1609_4 NumInternalContention 0
scalar World.node[33].nic.mac1609_4 totalBusyTime 6.816153876239
scalar World.node[33].nic.mac1609_4 retriesExceeded:count 0
attr source org_car2x_veins_modules_mac_sigRetriesExceeded
scalar World.node[33].nic.mac1609_4 sentAcks:count 0
attr source org_car2x_veins_modules_mac_sigSentAck
scalar World.node[33].nic.mac1609_4 sentPackets:count 759
attr source org_car2x_veins_modules_mac_sigSentPacket
scalar World.node[33].nic.mac1609_4 collisions:count 0
attr source org_car2x_veins_modules_mac_sigCollision
scalar World.node[33].nic.mac1609_4 channelBusy:timeavg 0.14947705868956
attr source org_car2x_veins_modules_mac_sigChannelBusy
scalar World.node[62].appl.middleware.DenService transmission:count 68
attr source DenmSent
scalar World.node[62].appl.middleware.DenService reception:count 12762
attr source DenmReceived
scalar World.node[62].nic.phy80211p busyTime 0.1714272189349
scalar World.node[62].nic.mac1609_4 ReceivedUnicastPackets 0
scalar World.node[62].nic.mac1609_4 ReceivedBroadcasts 13879
scalar World.node[62].nic.mac1609_4 SentPackets 281
scalar World.node[62].nic.mac1609_4 SentAcknowledgements 0
scalar World.node[62].nic.mac1609_4 RetriesExceeded 0
scalar World.node[62].nic.mac1609_4 SNIRLostPackets 159
scalar World.node[62].nic.mac1609_4 RXTXLostPackets 5
scalar World.node[62].nic.mac1609_4 TotalLostPackets 164
scalar World.node[62].nic.mac1609_4 DroppedPacketsInMac 0
scalar World.node[62].nic.mac1609_4 TooLittleTime 0
scalar World.node[62].nic.mac1609_4 TimesIntoBackoff 290
scalar World.node[62].nic.mac1609_4 SlotsBackoff 1766
scalar World.node[62].nic.mac1609_4 NumInternalContention 0
scalar World.node[62].nic.mac1609_4 totalBusyTime 2.933114271091
scalar World.node[62].nic.mac1609_4 retriesExceeded:count 0
attr source org_car2x_veins_modules_mac_sigRetriesExceeded
scalar World.node[62].nic.mac1609_4 sentAcks:count 0
attr source org_car2x_veins_modules_mac_sigSentAck
scalar World.node[62].nic.mac1609_4 sentPackets:count 281
attr source org_car2x_veins_modules_mac_sigSentPacket
scalar World.node[62].nic.mac1609_4 collisions:count 0
attr source org_car2x_veins_modules_mac_sigCollision
scalar World.node[62].nic.mac1609_4 channelBusy:timeavg 0.17355705746099
attr source org_car2x_veins_modules_mac_sigChannelBusy
scalar World.node[2].appl.middleware.DenService transmission:count 683
attr source DenmSent
scalar World.node[2].appl.middleware.DenService reception:count 35890
attr source DenmReceived
scalar World.node[2].nic.phy80211p busyTime 0.1102714285715
scalar World.node[2].nic.mac1609_4 ReceivedUnicastPackets 0
scalar World.node[2].nic.mac1609_4 ReceivedBroadcasts 40653
scalar World.node[2].nic.mac1609_4 SentPackets 1189
scalar World.node[2].nic.mac1609_4 SentAcknowledgements 0
scalar World.node[2].nic.mac1609_4 RetriesExceeded 0
scalar World.node[2].nic.mac1609_4 SNIRLostPackets 757
scalar World.node[2].nic.mac1609_4 RXTXLostPackets 0
scalar World.node[2].nic.mac1609_4 TotalLostPackets 757
scalar World.node[2].nic.mac1609_4 DroppedPacketsInMac 0
scalar World.node[2].nic.mac1609_4 TooLittleTime 0
scalar World.node[2].nic.mac1609_4 TimesIntoBackoff 1189
scalar World.node[2].nic.mac1609_4 SlotsBackoff 4633
scalar World.node[2].nic.mac1609_4 NumInternalContention 0
scalar World.node[2].nic.mac1609_4 totalBusyTime 8.792627131918
scalar World.node[2].nic.mac1609_4 retriesExceeded:count 0
attr source org_car2x_veins_modules_mac_sigRetriesExceeded
scalar World.node[2].nic.mac1609_4 sentAcks:count 0
attr source org_car2x_veins_modules_mac_sigSentAck
scalar World.node[2].nic.mac1609_4 sentPackets:count 1189
attr source org_car2x_veins_modules_mac_sigSentPacket
scalar World.node[2].nic.mac1609_4 collisions:count 0
attr source org_car2x_veins_modules_mac_sigCollision
scalar World.node[2].nic.mac1609_4 channelBusy:timeavg 0.11215085627453
attr source org_car2x_veins_modules_mac_sigChannelBusy
scalar World.node[18].appl.middleware.DenService transmission:count 310
attr source DenmSent
scalar World.node[18].appl.middleware.DenService reception:count 34690
attr source DenmReceived
scalar World.node[18].nic.phy80211p busyTime 0.13192205128216
scalar World.node[18].nic.mac1609_4 ReceivedUnicastPackets 0
scalar World.node[18].nic.mac1609_4 ReceivedBroadcasts 38977
scalar World.node[18].nic.mac1609_4 SentPackets 1039
scalar World.node[18].nic.mac1609_4 SentAcknowledgements 0
scalar World.node[18].nic.mac1609_4 RetriesExceeded 0
scalar World.node[18].nic.mac1609_4 SNIRLostPackets 602
scalar World.node[18].nic.mac1609_4 RXTXLostPackets 0
scalar World.node[18].nic.mac1609_4 TotalLostPackets 602
scalar World.node[18].nic.mac1609_4 DroppedPacketsInMac 0
scalar World.node[18].nic.mac1609_4 TooLittleTime 0
scalar World.node[18].nic.mac1609_4 TimesIntoBackoff 1039
scalar World.node[18].nic.mac1609_4 SlotsBackoff 4442
scalar World.node[18].nic.mac1609_4 NumInternalContention 0
scalar World.node[18].nic.mac1609_4 totalBusyTime 8.373247
scalar World.node[18].nic.mac1609_4 retriesExceeded:count 0
attr source org_car2x_veins_modules_mac_sigRetriesExceeded
scalar World.node[18].nic.mac1609_4 sentAcks:count 0
attr source org_car2x_veins_modules_mac_sigSentAck
scalar World.node[18].nic.mac1609_4 sentPackets:count 1039
attr source org_car2x_veins_modules_mac_sigSentPacket
scalar World.node[18].nic.mac1609_4 collisions:count 0
attr source org_car2x_veins_modules_mac_sigCollision
scalar World.node[18].nic.mac1609_4 channelBusy:timeavg 0.13418665064113
attr source org_car2x_veins_modules_mac_sigChannelBusy
scalar World.node[30].appl.middleware.DenService transmission:count 150
attr source DenmSent
scalar World.node[30].appl.middleware.DenService reception:count 31590
attr source DenmReceived
scalar World.node[30].nic.phy80211p busyTime 0.14531070866154
scalar World.node[30].nic.mac1609_4 ReceivedUnicastPackets 0
scalar World.node[30].nic.mac1609_4 ReceivedBroadcasts 34954
scalar World.node[30].nic.mac1609_4 SentPackets 846
scalar World.node[30].nic.mac1609_4 SentAcknowledgements 0
scalar World.node[30].nic.mac1609_4 RetriesExceeded 0
scalar World.node[30].nic.mac1609_4 SNIRLostPackets 610
scalar World.node[30].nic.mac1609_4 RXTXLostPackets 0
scalar World.node[30].nic.mac1609_4 TotalLostPackets 610
scalar World.node[30].nic.mac1609_4 DroppedPacketsInMac 0
scalar World.node[30].nic.mac1609_4 TooLittleTime 0
scalar World.node[30].nic.mac1609_4 TimesIntoBackoff 846
scalar World.node[30].nic.mac1609_4 SlotsBackoff 3667
scalar World.node[30].nic.mac1609_4 NumInternalContention 0
scalar World.node[30].nic.mac1609_4 totalBusyTime 7.481742903295
scalar World.node[30].nic.mac1609_4 retriesExceeded:count 0
attr source org_car2x_veins_modules_mac_sigRetriesExceeded
scalar World.node[30].nic.mac1609_4 sentAcks:count 0
attr source org_car2x_veins_modules_mac_sigSentAck
scalar World.node[30].nic.mac1609_4 sentPackets:count 846
attr source org_car2x_veins_modules_mac_sigSentPacket
scalar World.node[30].nic.mac1609_4 collisions:count 0
attr source org_car2x_veins_modules_mac_sigCollision
scalar World.node[30].nic.mac1609_4 channelBusy:timeavg 0.14727840360829
attr source org_car2x_veins_modules_mac_sigChannelBusy
scalar World.node[21].appl.middleware.DenService transmission:count 130
attr source DenmSent
scalar World.node[21].appl.middleware.DenService reception:count 36552
attr source DenmReceived
scalar World.node[21].nic.phy80211p busyTime 0.13808881685585
scalar World.node[21].nic.mac1609_4 ReceivedUnicastPackets 0
scalar World.node[21].nic.mac1609_4 ReceivedBroadcasts 40550
scalar World.node[21].nic.mac1609_4 SentPackets 1028
scalar World.node[21].nic.mac1609_4 SentAcknowledgements 0
scalar World.node[21].nic.mac1609_4 RetriesExceeded 0
scalar World.node[21].nic.mac1609_4 SNIRLostPackets 457
scalar World.node[21].nic.mac1609_4 RXTXLostPackets 0
scalar World.node[21].nic.mac1609_4 TotalLostPackets 457
scalar World.node[21].nic.mac1609_4 DroppedPacketsInMac 0
scalar World.node[21].nic.mac1609_4 TooLittleTime 0
scalar World.node[21].nic.mac1609_4 TimesIntoBackoff 1040
scalar World.node[21].nic.mac1609_4 SlotsBackoff 4449
scalar World.node[21].nic.mac1609_4 NumInternalContention 0
scalar World.node[21].nic.mac1609_4 totalBusyTime 8.668347376605
scalar World.node[21].nic.mac1609_4 retriesExceeded:count 0
attr source org_car2x_veins_modules_mac_sigRetriesExceeded
scalar World.node[21].nic.mac1609_4 sentAcks:count 0
attr source org_car2x_veins_modules_mac_sigSentAck
scalar World.node[21].nic.mac1609_4 sentPackets:count 1028
attr source org_car2x_veins_modules_mac_sigSentPacket
scalar World.node[21].nic.mac1609_4 collisions:count 0
attr source org_car2x_veins_modules_mac_sigCollision
scalar World.node[21].nic.mac1609_4 channelBusy:timeavg 0.14049185375382
attr source org_car2x_veins_modules_mac_sigChannelBusy
scalar World.node[50].appl.middleware.DenService transmission:count 160
attr source DenmSent
scalar World.node[50].appl.middleware.DenService reception:count 24323
attr source DenmReceived
scalar World.node[50].nic.phy80211p busyTime 0.16627347181017
scalar World.node[50].nic.mac1609_4 ReceivedUnicastPackets 0
scalar World.node[50].nic.mac1609_4 ReceivedBroadcasts 26528
scalar World.node[50].nic.mac1609_4 SentPackets 561
scalar World.node[50].nic.mac1609_4 SentAcknowledgements 0
scalar World.node[50].nic.mac1609_4 RetriesExceeded 0
scalar World.node[50].nic.mac1609_4 SNIRLostPackets 582
scalar World.node[50].nic.mac1609_4 RXTXLostPackets 0
scalar World.node[50].nic.mac1609_4 TotalLostPackets 582
scalar World.node[50].nic.mac1609_4 DroppedPacketsInMac 0
scalar World.node[50].nic.mac1609_4 TooLittleTime 0
scalar World.node[50].nic.mac1609_4 TimesIntoBackoff 561
scalar World.node[50].nic.mac1609_4 SlotsBackoff 2689
scalar World.node[50].nic.mac1609_4 NumInternalContention 0
scalar World.node[50].nic.mac1609_4 totalBusyTime 5.619533458058
scalar World.node[50].nic.mac1609_4 retriesExceeded:count 0
attr source org_car2x_veins_modules_mac_sigRetriesExceeded
scalar World.node[50].nic.mac1609_4 sentAcks:count 0
attr source org_car2x_veins_modules_mac_sigSentAck
scalar World.node[50].nic.mac1609_4 sentPackets:count 561
attr source org_car2x_veins_modules_mac_sigSentPacket
scalar World.node[50].nic.mac1609_4 collisions:count 0
attr source org_car2x_veins_modules_mac_sigCollision
scalar World.node[50].nic.mac1609_4 channelBusy:timeavg 0.16675173466056
attr source org_car2x_veins_modules_mac_sigChannelBusy
scalar World.node[16].appl.middleware.DenService transmission:count 160
attr source DenmSent
scalar World.node[16].appl.middleware.DenService reception:count 36374
attr source DenmReceived
scalar World.node[16].nic.phy80211p busyTime 0.12975729013263
scalar World.node[16].nic.mac1609_4 ReceivedUnicastPackets 0
scalar World.node[16].nic.mac1609_4 ReceivedBroadcasts 41328
scalar World.node[16].nic.mac1609_4 SentPackets 1131
scalar World.node[16].nic.mac1609_4 SentAcknowledgements 0
scalar World.node[16].nic.mac1609_4 RetriesExceeded 0
scalar World.node[16].nic.mac1609_4 SNIRLostPackets 1022
scalar World.node[16].nic.mac1609_4 RXTXLostPackets 0
scalar World.node[16].nic.mac1609_4 TotalLostPackets 1022
scalar World.node[16].nic.mac1609_4 DroppedPacketsInMac 0
scalar World.node[16].nic.mac1609_4 TooLittleTime 0
scalar World.node[16].nic.mac1609_4 TimesIntoBackoff 1131
scalar World.node[16].nic.mac1609_4 SlotsBackoff 4570
scalar World.node[16].nic.mac1609_4 NumInternalContention 0
scalar World.node[16].nic.mac1609_4 totalBusyTime 8.933531842302
scalar World.node[16].nic.mac1609_4 retriesExceeded:count 0
attr source org_car2x_veins_modules_mac_sigRetriesExceeded
scalar World.node[16].nic.mac1609_4 sentAcks:count 0
attr source org_car2x_veins_modules_mac_sigSentAck
scalar World.node[16].nic.mac1609_4 sentPackets:count 1131
attr source org_car2x_veins_modules_mac_sigSentPacket
scalar World.node[16].nic.mac1609_4 collisions:count 0
attr source org_car2x_veins_modules_mac_sigCollision
scalar World.node[16].nic.mac1609_4 channelBusy:timeavg 0.1315689520222
attr source org_car2x_veins_modules_mac_sigChannelBusy
scalar World.node[34].appl.middleware.DenService transmission:count 30
attr source DenmSent
scalar World.node[34].appl.middleware.DenService reception:count 32891
attr source DenmReceived
scalar World.node[34].nic.phy80211p busyTime 0.15053517786574
scalar World.node[34].nic.mac1609_4 ReceivedUnicastPackets 0
scalar World.node[34].nic.mac1609_4 ReceivedBroadcasts 36401
scalar World.node[34].nic.mac1609_4 SentPackets 843
scalar World.node[34].nic.mac1609_4 SentAcknowledgements 0
scalar World.node[34].nic.mac1609_4 RetriesExceeded 0
scalar World.node[34].nic.mac1609_4 SNIRLostPackets 335
scalar World.node[34].nic.mac1609_4 RXTXLostPackets 0
scalar World.node[34].nic.mac1609_4 TotalLostPackets 335
scalar World.node[34].nic.mac1609_4 DroppedPacketsInMac 0
scalar World.node[34].nic.mac1609_4 TooLittleTime 0
scalar World.node[34].nic.mac1609_4 TimesIntoBackoff 843
scalar World.node[34].nic.mac1609_4 SlotsBackoff 3487
scalar World.node[34].nic.mac1609_4 NumInternalContention 0
scalar World.node[34].nic.mac1609_4 totalBusyTime 7.752579
scalar World.node[34].nic.mac1609_4 retriesExceeded:count 0
attr source org_car2x_veins_modules_mac_sigRetriesExceeded
scalar World.node[34].nic.mac1609_4 sentAcks:count 0
attr source org_car2x_veins_modules_mac_sigSentAck
scalar World.node[34].nic.mac1609_4 sentPackets:count 843
attr source org_car2x_veins_modules_mac_sigSentPacket
scalar World.node[34].nic.mac1609_4 collisions:count 0
attr source org_car2x_veins_modules_mac_sigCollision
scalar World.node[34].nic.mac1609_4 channelBusy:timeavg 0.15321302371554
attr source org_car2x_veins_modules_mac_sigChannelBusy
scalar World.node[53].appl.middleware.DenService transmission:count 205
attr source DenmSent
scalar World.node[53].appl.middleware.DenService reception:count 23125
attr source DenmReceived
scalar World.node[53].nic.phy80211p busyTime 0.16672303797475
scalar World.node[53].nic.mac1609_4 ReceivedUnicastPackets 0
scalar World.node[53].nic.mac1609_4 ReceivedBroadcasts 25283
scalar World.node[53].nic.mac1609_4 SentPackets 526
scalar World.node[53].nic.mac1609_4 SentAcknowledgements 0
scalar World.node[53].nic.mac1609_4 RetriesExceeded 0
scalar World.node[53].nic.mac1609_4 SNIRLostPackets 211
scalar World.node[53].nic.mac1609_4 RXTXLostPackets 0
scalar World.node[53].nic.mac1609_4 TotalLostPackets 211
scalar World.node[53].nic.mac1609_4 DroppedPacketsInMac 0
scalar World.node[53].nic.mac1609_4 TooLittleTime 0
scalar World.node[53].nic.mac1609_4 TimesIntoBackoff 526
scalar World.node[53].nic.mac1609_4 SlotsBackoff 2449
scalar World.node[53].nic.mac1609_4 NumInternalContention 0
scalar World.node[53].nic.mac1609_4 totalBusyTime 5.350335753873
scalar World.node[53].nic.mac1609_4 retriesExceeded:count 0
attr source org_car2x_veins_modules_mac_sigRetriesExceeded
scalar World.node[53].nic.mac1609_4 sentAcks:count 0
attr source org_car2x_veins_modules_mac_sigSentAck
scalar World.node[53].nic.mac1609_4 sentPackets:count 526
attr source org_car2x_veins_modules_mac_sigSentPacket
scalar World.node[53].nic.mac1609_4 collisions:count 0
attr source org_car2x_veins_modules_mac_sigCollision
scalar World.node[53].nic.mac1609_4 channelBusy:timeavg 0.16931442259099
attr source org_car2x_veins_modules_mac_sigChannelBusy
scalar World.node[23].appl.middleware.DenService transmission:count 10
attr source DenmSent
scalar World.node[23].appl.middleware.DenService reception:count 38020
attr source DenmReceived
scalar World.node[23].nic.phy80211p busyTime 0.14067646869993
scalar World.node[23].nic.mac1609_4 ReceivedUnicastPackets 0
scalar World.node[23].nic.mac1609_4 ReceivedBroadcasts 41952
scalar World.node[23].nic.mac1609_4 SentPackets 1037
scalar World.node[23].nic.mac1609_4 SentAcknowledgements 0
scalar World.node[23].nic.mac1609_4 RetriesExceeded 0
scalar World.node[23].nic.mac1609_4 SNIRLostPackets 314
scalar World.node[23].nic.mac1609_4 RXTXLostPackets 0
scalar World.node[23].nic.mac1609_4 TotalLostPackets 314
scalar World.node[23].nic.mac1609_4 DroppedPacketsInMac 0
scalar World.node[23].nic.mac1609_4 TooLittleTime 0
scalar World.node[23].nic.mac1609_4 TimesIntoBackoff 1037
scalar World.node[23].nic.mac1609_4 SlotsBackoff 5608
scalar World.node[23].nic.mac1609_4 NumInternalContention 0
scalar World.node[23].nic.mac1609_4 totalBusyTime 8.953348492877
scalar World.node[23].nic.mac1609_4 retriesExceeded:count 0
attr source org_car2x_veins_modules_mac_sigRetriesExceeded
scalar World.node[23].nic.mac1609_4 sentAcks:count 0
attr source org_car2x_veins_modules_mac_sigSentAck
scalar World.node[23].nic.mac1609_4 sentPackets:count 1037
attr source org_car2x_veins_modules_mac_sigSentPacket
scalar World.node[23].nic.mac1609_4 collisions:count 0
attr source org_car2x_veins_modules_mac_sigCollision
scalar World.node[23].nic.mac1609_4 channelBusy:timeavg 0.14371345895477
attr source org_car2x_veins_modules_mac_sigChannelBusy
scalar World.node[22].appl.middleware.DenService transmission:count 140
attr source DenmSent
scalar World.node[22].appl.middleware.DenService reception:count 41101
attr source DenmReceived
scalar World.node[22].nic.phy80211p busyTime 0.14207647058829
scalar World.node[22].nic.mac1609_4 ReceivedUnicastPackets 0
scalar World.node[22].nic.mac1609_4 ReceivedBroadcasts 45573
scalar World.node[22].nic.mac1609_4 SentPackets 1133
scalar World.node[22].nic.mac1609_4 SentAcknowledgements 0
scalar World.node[22].nic.mac1609_4 RetriesExceeded 0
scalar World.node[22].nic.mac1609_4 SNIRLostPackets 990
scalar World.node[22].nic.mac1609_4 RXTXLostPackets 0
scalar World.node[22].nic.mac1609_4 TotalLostPackets 990
scalar World.node[22].nic.mac1609_4 DroppedPacketsInMac 0
scalar World.node[22].nic.mac1609_4 TooLittleTime 0
scalar World.node[22].nic.mac1609_4 TimesIntoBackoff 1136
scalar World.node[22].nic.mac1609_4 SlotsBackoff 4794
scalar World.node[22].nic.mac1609_4 NumInternalContention 0
scalar World.node[22].nic.mac1609_4 totalBusyTime 9.788365
scalar World.node[22].nic.mac1609_4 retriesExceeded:count 0
attr source org_car2x_veins_modules_mac_sigRetriesExceeded
scalar World.node[22].nic.mac1609_4 sentAcks:count 0
attr source org_car2x_veins_modules_mac_sigSentAck
scalar World.node[22].nic.mac1609_4 sentPackets:count 1133
attr source org_car2x_veins_modules_mac_sigSentPacket
scalar World.node[22].nic.mac1609_4 collisions:count 0
attr source org_car2x_veins_modules_mac_sigCollision
scalar World.node[22].nic.mac1609_4 channelBusy:timeavg 0.1439465441177
attr source org_car2x_veins_modules_mac_sigChannelBusy
scalar World.node[79].appl.middleware.DenService transmission:count 11
attr source DenmSent
scalar World.node[79].appl.middleware.DenService reception:count 8147
attr source DenmReceived
scalar World.node[79].nic.phy80211p busyTime 0.17040928571427
scalar World.node[79].nic.mac1609_4 ReceivedUnicastPackets 0
scalar World.node[79].nic.mac1609_4 ReceivedBroadcasts 8813
scalar World.node[79].nic.mac1609_4 SentPackets 186
scalar World.node[79].nic.mac1609_4 SentAcknowledgements 0
scalar World.node[79].nic.mac1609_4 RetriesExceeded 0
scalar World.node[79].nic.mac1609_4 SNIRLostPackets 462
scalar World.node[79].nic.mac1609_4 RXTXLostPackets 0
scalar World.node[79].nic.mac1609_4 TotalLostPackets 462
scalar World.node[79].nic.mac1609_4 DroppedPacketsInMac 0
scalar World.node[79].nic.mac1609_4 TooLittleTime 0
scalar World.node[79].nic.mac1609_4 TimesIntoBackoff 186
scalar World.node[79].nic.mac1609_4 SlotsBackoff 1318
scalar World.node[79].nic.mac1609_4 NumInternalContention 0
scalar World.node[79].nic.mac1609_4 totalBusyTime 1.902458
scalar World.node[79].nic.mac1609_4 retriesExceeded:count 0
attr source org_car2x_veins_modules_mac_sigRetriesExceeded
scalar World.node[79].nic.mac1609_4 sentAcks:count 0
attr source org_car2x_veins_modules_mac_sigSentAck
scalar World.node[79].nic.mac1609_4 sentPackets:count 186
attr source org_car2x_veins_modules_mac_sigSentPacket
scalar World.node[79].nic.mac1609_4 collisions:count 0
attr source org_car2x_veins_modules_mac_sigCollision
scalar World.node[79].nic.mac1609_4 channelBusy:timeavg 0.16986232142856
attr source org_car2x_veins_modules_mac_sigChannelBusy
scalar World.node[46].appl.middleware.DenService transmission:count 384
attr source DenmSent
scalar World.node[46].appl.middleware.DenService reception:count 34535
attr source DenmReceived
scalar World.node[46].nic.phy80211p busyTime 0.16453377319602
scalar World.node[46].nic.mac1609_4 ReceivedUnicastPackets 0
scalar World.node[46].nic.mac1609_4 ReceivedBroadcasts 37908
scalar World.node[46].nic.mac1609_4 SentPackets 808
scalar World.node[46].nic.mac1609_4 SentAcknowledgements 0
scalar World.node[46].nic.mac1609_4 RetriesExceeded 0
scalar World.node[46].nic.mac1609_4 SNIRLostPackets 681
scalar World.node[46].nic.mac1609_4 RXTXLostPackets 0
scalar World.node[46].nic.mac1609_4 TotalLostPackets 681
scalar World.node[46].nic.mac1609_4 DroppedPacketsInMac 0
scalar World.node[46].nic.mac1609_4 TooLittleTime 0
scalar World.node[46].nic.mac1609_4 TimesIntoBackoff 808
scalar World.node[46].nic.mac1609_4 SlotsBackoff 3650
scalar World.node[46].nic.mac1609_4 NumInternalContention 0
scalar World.node[46].nic.mac1609_4 totalBusyTime 8.055187999174
scalar World.node[46].nic.mac1609_4 retriesExceeded:count 0
attr source org_car2x_veins_modules_mac_sigRetriesExceeded
scalar World.node[46].nic.mac1609_4 sentAcks:count 0
attr source org_car2x_veins_modules_mac_sigSentAck
scalar World.node[46].nic.mac1609_4 sentPackets:count 808
attr source org_car2x_veins_modules_mac_sigSentPacket
scalar World.node[46].nic.mac1609_4 collisions:count 0
attr source org_car2x_veins_modules_mac_sigCollision
scalar World.node[46].nic.mac1609_4 channelBusy:timeavg 0.16608635049857
attr source org_car2x_veins_modules_mac_sigChannelBusy
scalar World.node[57].appl.middleware.DenService transmission:count 0
attr source DenmSent
scalar World.node[57].appl.middleware.DenService reception:count 29598
attr source DenmReceived
scalar World.node[57].nic.phy80211p busyTime 0.1693961858192
scalar World.node[57].nic.mac1609_4 ReceivedUnicastPackets 0
scalar World.node[57].nic.mac1609_4 ReceivedBroadcasts 32047
scalar World.node[57].nic.mac1609_4 SentPackets 681
scalar World.node[57].nic.mac1609_4 SentAcknowledgements 0
scalar World.node[57].nic.mac1609_4 RetriesExceeded 0
scalar World.node[57].nic.mac1609_4 SNIRLostPackets 1550
scalar World.node[57].nic.mac1609_4 RXTXLostPackets 0
scalar World.node[57].nic.mac1609_4 TotalLostPackets 1550
scalar World.node[57].nic.mac1609_4 DroppedPacketsInMac 0
scalar World.node[57].nic.mac1609_4 TooLittleTime 0
scalar World.node[57].nic.mac1609_4 TimesIntoBackoff 681
scalar World.node[57].nic.mac1609_4 SlotsBackoff 5094
scalar World.node[57].nic.mac1609_4 NumInternalContention 0
scalar World.node[57].nic.mac1609_4 totalBusyTime 6.915649362407
scalar World.node[57].nic.mac1609_4 retriesExceeded:count 0
attr source org_car2x_veins_modules_mac_sigRetriesExceeded
scalar World.node[57].nic.mac1609_4 sentAcks:count 0
attr source org_car2x_veins_modules_mac_sigSentAck
scalar World.node[57].nic.mac1609_4 sentPackets:count 681
attr source org_car2x_veins_modules_mac_sigSentPacket
scalar World.node[57].nic.mac1609_4 collisions:count 0
attr source org_car2x_veins_modules_mac_sigCollision
scalar World.node[57].nic.mac1609_4 channelBusy:timeavg 0.16908678147707
attr source org_car2x_veins_modules_mac_sigChannelBusy
scalar World.node[68].appl.middleware.DenService transmission:count 180
attr source DenmSent
scalar World.node[68].appl.middleware.DenService reception:count 20760
attr source DenmReceived
scalar World.node[68].nic.phy80211p busyTime 0.17454206405699
scalar World.node[68].nic.mac1609_4 ReceivedUnicastPackets 0
scalar World.node[68].nic.mac1609_4 ReceivedBroadcasts 22679
scalar World.node[68].nic.mac1609_4 SentPackets 468
scalar World.node[68].nic.mac1609_4 SentAcknowledgements 0
scalar World.node[68].nic.mac1609_4 RetriesExceeded 0
scalar World.node[68].nic.mac1609_4 SNIRLostPackets 1103
scalar World.node[68].nic.mac1609_4 RXTXLostPackets 0
scalar World.node[68].nic.mac1609_4 TotalLostPackets 1103
scalar World.node[68].nic.mac1609_4 DroppedPacketsInMac 0
scalar World.node[68].nic.mac1609_4 TooLittleTime 0
scalar World.node[68].nic.mac1609_4 TimesIntoBackoff 468
scalar World.node[68].nic.mac1609_4 SlotsBackoff 2375
scalar World.node[68].nic.mac1609_4 NumInternalContention 0
scalar World.node[68].nic.mac1609_4 totalBusyTime 4.885740056142
scalar World.node[68].nic.mac1609_4 retriesExceeded:count 0
attr source org_car2x_veins_modules_mac_sigRetriesExceeded
scalar World.node[68].nic.mac1609_4 sentAcks:count 0
attr source org_car2x_veins_modules_mac_sigSentAck
scalar World.node[68].nic.mac1609_4 sentPackets:count 468
attr source org_car2x_veins_modules_mac_sigSentPacket
scalar World.node[68].nic.mac1609_4 collisions:count 0
attr source org_car2x_veins_modules_mac_sigCollision
scalar World.node[68].nic.mac1609_4 channelBusy:timeavg 0.17386975288767
attr source org_car2x_veins_modules_mac_sigChannelBusy
scalar World.node[80].appl.middleware.DenService transmission:count 68
attr source DenmSent
scalar World.node[80].appl.middleware.DenService reception:count 13220
attr source DenmReceived
scalar World.node[80].nic.phy80211p busyTime 0.17650035502957
scalar World.node[80].nic.mac1609_4 ReceivedUnicastPackets 0
scalar World.node[80].nic.mac1609_4 ReceivedBroadcasts 14379
scalar World.node[80].nic.mac1609_4 SentPackets 281
scalar World.node[80].nic.mac1609_4 SentAcknowledgements 0
scalar World.node[80].nic.mac1609_4 RetriesExceeded 0
scalar World.node[80].nic.mac1609_4 SNIRLostPackets 91
scalar World.node[80].nic.mac1609_4 RXTXLostPackets 16
scalar World.node[80].nic.mac1609_4 TotalLostPackets 107
scalar World.node[80].nic.mac1609_4 DroppedPacketsInMac 0
scalar World.node[80].nic.mac1609_4 TooLittleTime 0
scalar World.node[80].nic.mac1609_4 TimesIntoBackoff 554
scalar World.node[80].nic.mac1609_4 SlotsBackoff 3428
scalar World.node[80].nic.mac1609_4 NumInternalContention 0
scalar World.node[80].nic.mac1609_4 totalBusyTime 3.029993340092
scalar World.node[80].nic.mac1609_4 retriesExceeded:count 0
attr source org_car2x_veins_modules_mac_sigRetriesExceeded
scalar World.node[80].nic.mac1609_4 sentAcks:count 0
attr source org_car2x_veins_modules_mac_sigSentAck
scalar World.node[80].nic.mac1609_4 sentPackets:count 281
attr source org_car2x_veins_modules_mac_sigSentPacket
scalar World.node[80].nic.mac1609_4 collisions:count 0
attr source org_car2x_veins_modules_mac_sigCollision
scalar World.node[80].nic.mac1609_4 channelBusy:timeavg 0.17928954675099
attr source org_car2x_veins_modules_mac_sigChannelBusy
scalar World.node[47].appl.middleware.DenService transmission:count 230
attr source DenmSent
scalar World.node[47].appl.middleware.DenService reception:count 37813
attr source DenmReceived
scalar World.node[47].nic.phy80211p busyTime 0.16118876404505
scalar World.node[47].nic.mac1609_4 ReceivedUnicastPackets 0
scalar World.node[47].nic.mac1609_4 ReceivedBroadcasts 41343
scalar World.node[47].nic.mac1609_4 SentPackets 889
scalar World.node[47].nic.mac1609_4 SentAcknowledgements 0
scalar World.node[47].nic.mac1609_4 RetriesExceeded 0
scalar World.node[47].nic.mac1609_4 SNIRLostPackets 298
scalar World.node[47].nic.mac1609_4 RXTXLostPackets 2
scalar World.node[47].nic.mac1609_4 TotalLostPackets 300
scalar World.node[47].nic.mac1609_4 DroppedPacketsInMac 0
scalar World.node[47].nic.mac1609_4 TooLittleTime 0
scalar World.node[47].nic.mac1609_4 TimesIntoBackoff 1778
scalar World.node[47].nic.mac1609_4 SlotsBackoff 7760
scalar World.node[47].nic.mac1609_4 NumInternalContention 0
scalar World.node[47].nic.mac1609_4 totalBusyTime 8.756025445732
scalar World.node[47].nic.mac1609_4 retriesExceeded:count 0
attr source org_car2x_veins_modules_mac_sigRetriesExceeded
scalar World.node[47].nic.mac1609_4 sentAcks:count 0
attr source org_car2x_veins_modules_mac_sigSentAck
scalar World.node[47].nic.mac1609_4 sentPackets:count 889
attr source org_car2x_veins_modules_mac_sigSentPacket
scalar World.node[47].nic.mac1609_4 collisions:count 0
attr source org_car2x_veins_modules_mac_sigCollision
scalar World.node[47].nic.mac1609_4 channelBusy:timeavg 0.16397051396512
attr source org_car2x_veins_modules_mac_sigChannelBusy
scalar World.node[48].appl.middleware.DenService transmission:count 431
attr source DenmSent
scalar World.node[48].appl.middleware.DenService reception:count 39039
attr source DenmReceived
scalar World.node[48].nic.phy80211p busyTime 0.16765714285724
scalar World.node[48].nic.mac1609_4 ReceivedUnicastPackets 0
scalar World.node[48].nic.mac1609_4 ReceivedBroadcasts 42915
scalar World.node[48].nic.mac1609_4 SentPackets 886
scalar World.node[48].nic.mac1609_4 SentAcknowledgements 0
scalar World.node[48].nic.mac1609_4 RetriesExceeded 0
scalar World.node[48].nic.mac1609_4 SNIRLostPackets 253
scalar World.node[48].nic.mac1609_4 RXTXLostPackets 0
scalar World.node[48].nic.mac1609_4 TotalLostPackets 253
scalar World.node[48].nic.mac1609_4 DroppedPacketsInMac 0
scalar World.node[48].nic.mac1609_4 TooLittleTime 0
scalar World.node[48].nic.mac1609_4 TimesIntoBackoff 1064
scalar World.node[48].nic.mac1609_4 SlotsBackoff 5120
scalar World.node[48].nic.mac1609_4 NumInternalContention 0
scalar World.node[48].nic.mac1609_4 totalBusyTime 9.065995084597
scalar World.node[48].nic.mac1609_4 retriesExceeded:count 0
attr source org_car2x_veins_modules_mac_sigRetriesExceeded
scalar World.node[48].nic.mac1609_4 sentAcks:count 0
attr source org_car2x_veins_modules_mac_sigSentAck
scalar World.node[48].nic.mac1609_4 sentPackets:count 886
attr source org_car2x_veins_modules_mac_sigSentPacket
scalar World.node[48].nic.mac1609_4 collisions:count 0
attr source org_car2x_veins_modules_mac_sigCollision
scalar World.node[48].nic.mac1609_4 channelBusy:timeavg 0.17041344143988
attr source org_car2x_veins_modules_mac_sigChannelBusy
scalar World.node[39].appl.middleware.DenService transmission:count 190
attr source DenmSent
scalar World.node[39].appl.middleware.DenService reception:count 43942
attr source DenmReceived
scalar World.node[39].nic.phy80211p busyTime 0.16281923076927
scalar World.node[39].nic.mac1609_4 ReceivedUnicastPackets 0
scalar World.node[39].nic.mac1609_4 ReceivedBroadcasts 48259
scalar World.node[39].nic.mac1609_4 SentPackets 1039
scalar World.node[39].nic.mac1609_4 SentAcknowledgements 0
scalar World.node[39].nic.mac1609_4 RetriesExceeded 0
scalar World.node[39].nic.mac1609_4 SNIRLostPackets 859
scalar World.node[39].nic.mac1609_4 RXTXLostPackets 0
scalar World.node[39].nic.mac1609_4 TotalLostPackets 859
scalar World.node[39].nic.mac1609_4 DroppedPacketsInMac 0
scalar World.node[39].nic.mac1609_4 TooLittleTime 0
scalar World.node[39].nic.mac1609_4 TimesIntoBackoff 1059
scalar World.node[39].nic.mac1609_4 SlotsBackoff 4448
scalar World.node[39].nic.mac1609_4 NumInternalContention 0
scalar World.node[39].nic.mac1609_4 totalBusyTime 10.281856180298
scalar World.node[39].nic.mac1609_4 retriesExceeded:count 0
attr source org_car2x_veins_modules_mac_sigRetriesExceeded
scalar World.node[39].nic.mac1609_4 sentAcks:count 0
attr source org_car2x_veins_modules_mac_sigSentAck
scalar World.node[39].nic.mac1609_4 sentPackets:count 1039
attr source org_car2x_veins_modules_mac_sigSentPacket
scalar World.node[39].nic.mac1609_4 collisions:count 0
attr source org_car2x_veins_modules_mac_sigCollision
scalar World.node[39].nic.mac1609_4 channelBusy:timeavg 0.16477333622276
attr source org_car2x_veins_modules_mac_sigChannelBusy
scalar World.node[54].appl.middleware.DenService transmission:count 170
attr source DenmSent
scalar World.node[54].appl.middleware.DenService reception:count 37586
attr source DenmReceived
scalar World.node[54].nic.phy80211p busyTime 0.17117397205601
scalar World.node[54].nic.mac1609_4 ReceivedUnicastPackets 0
scalar World.node[54].nic.mac1609_4 ReceivedBroadcasts 41221
scalar World.node[54].nic.mac1609_4 SentPackets 834
scalar World.node[54].nic.mac1609_4 SentAcknowledgements 0
scalar World.node[54].nic.mac1609_4 RetriesExceeded 0
scalar World.node[54].nic.mac1609_4 SNIRLostPackets 311
scalar World.node[54].nic.mac1609_4 RXTXLostPackets 0
scalar World.node[54].nic.mac1609_4 TotalLostPackets 311
scalar World.node[54].nic.mac1609_4 DroppedPacketsInMac 0
scalar World.node[54].nic.mac1609_4 TooLittleTime 0
scalar World.node[54].nic.mac1609_4 TimesIntoBackoff 834
scalar World.node[54].nic.mac1609_4 SlotsBackoff 3566
scalar World.node[54].nic.mac1609_4 NumInternalContention 0
scalar World.node[54].nic.mac1609_4 totalBusyTime 8.705482741751
scalar World.node[54].nic.mac1609_4 retriesExceeded:count 0
attr source org_car2x_veins_modules_mac_sigRetriesExceeded
scalar World.node[54].nic.mac1609_4 sentAcks:count 0
attr source org_car2x_veins_modules_mac_sigSentAck
scalar World.node[54].nic.mac1609_4 sentPackets:count 834
attr source org_car2x_veins_modules_mac_sigSentPacket
scalar World.node[54].nic.mac1609_4 collisions:count 0
attr source org_car2x_veins_modules_mac_sigCollision
scalar World.node[54].nic.mac1609_4 channelBusy:timeavg 0.17376213057398
attr source org_car2x_veins_modules_mac_sigChannelBusy
scalar World.node[66].appl.middleware.DenService transmission:count 252
attr source DenmSent
scalar World.node[66].appl.middleware.DenService reception:count 27052
attr source DenmReceived
scalar World.node[66].nic.phy80211p busyTime 0.17700963172816
scalar World.node[66].nic.mac1609_4 ReceivedUnicastPackets 0
scalar World.node[66].nic.mac1609_4 ReceivedBroadcasts 29677
scalar World.node[66].nic.mac1609_4 SentPackets 584
scalar World.node[66].nic.mac1609_4 SentAcknowledgements 0
scalar World.node[66].nic.mac1609_4 RetriesExceeded 0
scalar World.node[66].nic.mac1609_4 SNIRLostPackets 618
scalar World.node[66].nic.mac1609_4 RXTXLostPackets 16
scalar World.node[66].nic.mac1609_4 TotalLostPackets 634
scalar World.node[66].nic.mac1609_4 DroppedPacketsInMac 0
scalar World.node[66].nic.mac1609_4 TooLittleTime 0
scalar World.node[66].nic.mac1609_4 TimesIntoBackoff 677
scalar World.node[66].nic.mac1609_4 SlotsBackoff 3115
scalar World.node[66].nic.mac1609_4 NumInternalContention 0
scalar World.node[66].nic.mac1609_4 totalBusyTime 6.289513915499
scalar World.node[66].nic.mac1609_4 retriesExceeded:count 0
attr source org_car2x_veins_modules_mac_sigRetriesExceeded
scalar World.node[66].nic.mac1609_4 sentAcks:count 0
attr source org_car2x_veins_modules_mac_sigSentAck
scalar World.node[66].nic.mac1609_4 sentPackets:count 584
attr source org_car2x_veins_modules_mac_sigSentPacket
scalar World.node[66].nic.mac1609_4 collisions:count 0
attr source org_car2x_veins_modules_mac_sigCollision
scalar World.node[66].nic.mac1609_4 channelBusy:timeavg 0.17817319873946
attr source org_car2x_veins_modules_mac_sigChannelBusy
scalar World.node[51].appl.middleware.DenService transmission:count 160
attr source DenmSent
scalar World.node[51].appl.middleware.DenService reception:count 38841
attr source DenmReceived
scalar World.node[51].nic.phy80211p busyTime 0.16791704797057
scalar World.node[51].nic.mac1609_4 ReceivedUnicastPackets 0
scalar World.node[51].nic.mac1609_4 ReceivedBroadcasts 42807
scalar World.node[51].nic.mac1609_4 SentPackets 893
scalar World.node[51].nic.mac1609_4 SentAcknowledgements 0
scalar World.node[51].nic.mac1609_4 RetriesExceeded 0
scalar World.node[51].nic.mac1609_4 SNIRLostPackets 1257
scalar World.node[51].nic.mac1609_4 RXTXLostPackets 0
scalar World.node[51].nic.mac1609_4 TotalLostPackets 1257
scalar World.node[51].nic.mac1609_4 DroppedPacketsInMac 0
scalar World.node[51].nic.mac1609_4 TooLittleTime 0
scalar World.node[51].nic.mac1609_4 TimesIntoBackoff 894
scalar World.node[51].nic.mac1609_4 SlotsBackoff 3733
scalar World.node[51].nic.mac1609_4 NumInternalContention 0
scalar World.node[51].nic.mac1609_4 totalBusyTime 9.142918346272
scalar World.node[51].nic.mac1609_4 retriesExceeded:count 0
attr source org_car2x_veins_modules_mac_sigRetriesExceeded
scalar World.node[51].nic.mac1609_4 sentAcks:count 0
attr source org_car2x_veins_modules_mac_sigSentAck
scalar World.node[51].nic.mac1609_4 sentPackets:count 893
attr source org_car2x_veins_modules_mac_sigSentPacket
scalar World.node[51].nic.mac1609_4 collisions:count 0
attr source org_car2x_veins_modules_mac_sigCollision
scalar World.node[51].nic.mac1609_4 channelBusy:timeavg 0.16868853037411
attr source org_car2x_veins_modules_mac_sigChannelBusy
scalar World.node[105].appl.middleware.DenService transmission:count 0
attr source DenmSent
scalar World.node[105].appl.middleware.DenService reception:count 75
attr source DenmReceived
scalar World.node[105].nic.phy80211p busyTime 0.16528
scalar World.node[105].nic.mac1609_4 ReceivedUnicastPackets 0
scalar World.node[105].nic.mac1609_4 ReceivedBroadcasts 80
scalar World.node[105].nic.mac1609_4 SentPackets 1
scalar World.node[105].nic.mac1609_4 SentAcknowledgements 0
scalar World.node[105].nic.mac1609_4 RetriesExceeded 0
scalar World.node[105].nic.mac1609_4 SNIRLostPackets 1
scalar World.node[105].nic.mac1609_4 RXTXLostPackets 0
scalar World.node[105].nic.mac1609_4 TotalLostPackets 1
scalar World.node[105].nic.mac1609_4 DroppedPacketsInMac 0
scalar World.node[105].nic.mac1609_4 TooLittleTime 0
scalar World.node[105].nic.mac1609_4 TimesIntoBackoff 1
scalar World.node[105].nic.mac1609_4 SlotsBackoff 10
scalar World.node[105].nic.mac1609_4 NumInternalContention 0
scalar World.node[105].nic.mac1609_4 totalBusyTime 0.016529
scalar World.node[105].nic.mac1609_4 retriesExceeded:count 0
attr source org_car2x_veins_modules_mac_sigRetriesExceeded
scalar World.node[105].nic.mac1609_4 sentAcks:count 0
attr source org_car2x_veins_modules_mac_sigSentAck
scalar World.node[105].nic.mac1609_4 sentPackets:count 1
attr source org_car2x_veins_modules_mac_sigSentPacket
scalar World.node[105].nic.mac1609_4 collisions:count 0
attr source org_car2x_veins_modules_mac_sigCollision
scalar World.node[105].nic.mac1609_4 channelBusy:timeavg 0.16529
attr source org_car2x_veins_modules_mac_sigChannelBusy
scalar World.node[95].appl.middleware.DenService transmission:count 3
attr source DenmSent
scalar World.node[95].appl.middleware.DenService reception:count 8388
attr source DenmReceived
scalar World.node[95].nic.phy80211p busyTime 0.18145846153845
scalar World.node[95].nic.mac1609_4 ReceivedUnicastPackets 0
scalar World.node[95].nic.mac1609_4 ReceivedBroadcasts 9103
scalar World.node[95].nic.mac1609_4 SentPackets 155
scalar World.node[95].nic.mac1609_4 SentAcknowledgements 0
scalar World.node[95].nic.mac1609_4 RetriesExceeded 0
scalar World.node[95].nic.mac1609_4 SNIRLostPackets 59
[...]
attr source org_car2x_veins_modules_mac_sigRetriesExceeded
scalar World.node[82].nic.mac1609_4 sentAcks:count 0
attr source org_car2x_veins_modules_mac_sigSentAck
scalar World.node[82].nic.mac1609_4 sentPackets:count 618
attr source org_car2x_veins_modules_mac_sigSentPacket
scalar World.node[82].nic.mac1609_4 collisions:count 0
attr source org_car2x_veins_modules_mac_sigCollision
scalar World.node[82].nic.mac1609_4 channelBusy:timeavg 0.17186699403118
attr source org_car2x_veins_modules_mac_sigChannelBusy
scalar World.node[83].appl.middleware.DenService transmission:count 260
attr source DenmSent
scalar World.node[83].appl.middleware.DenService reception:count 26791
attr source DenmReceived
scalar World.node[83].nic.phy80211p busyTime 0.17369604380883
scalar World.node[83].nic.mac1609_4 ReceivedUnicastPackets 0
scalar World.node[83].nic.mac1609_4 ReceivedBroadcasts 29583
scalar World.node[83].nic.mac1609_4 SentPackets 586
scalar World.node[83].nic.mac1609_4 SentAcknowledgements 0
scalar World.node[83].nic.mac1609_4 RetriesExceeded 0
scalar World.node[83].nic.mac1609_4 SNIRLostPackets 768
scalar World.node[83].nic.mac1609_4 RXTXLostPackets 1
scalar World.node[83].nic.mac1609_4 TotalLostPackets 769
scalar World.node[83].nic.mac1609_4 DroppedPacketsInMac 0
scalar World.node[83].nic.mac1609_4 TooLittleTime 0
scalar World.node[83].nic.mac1609_4 TimesIntoBackoff 603
scalar World.node[83].nic.mac1609_4 SlotsBackoff 2563
scalar World.node[83].nic.mac1609_4 NumInternalContention 0
scalar World.node[83].nic.mac1609_4 totalBusyTime 6.28557006105
scalar World.node[83].nic.mac1609_4 retriesExceeded:count 0
attr source org_car2x_veins_modules_mac_sigRetriesExceeded
scalar World.node[83].nic.mac1609_4 sentAcks:count 0
attr source org_car2x_veins_modules_mac_sigSentAck
scalar World.node[83].nic.mac1609_4 sentPackets:count 586
attr source org_car2x_veins_modules_mac_sigSentPacket
scalar World.node[83].nic.mac1609_4 collisions:count 0
attr source org_car2x_veins_modules_mac_sigCollision
scalar World.node[83].nic.mac1609_4 channelBusy:timeavg 0.17414226362693
attr source org_car2x_veins_modules_mac_sigChannelBusy
scalar World.node[84].appl.middleware.DenService transmission:count 244
attr source DenmSent
scalar World.node[84].appl.middleware.DenService reception:count 25709
attr source DenmReceived
scalar World.node[84].nic.phy80211p busyTime 0.17065908234495
scalar World.node[84].nic.mac1609_4 ReceivedUnicastPackets 0
scalar World.node[84].nic.mac1609_4 ReceivedBroadcasts 28070
scalar World.node[84].nic.mac1609_4 SentPackets 574
scalar World.node[84].nic.mac1609_4 SentAcknowledgements 0
scalar World.node[84].nic.mac1609_4 RetriesExceeded 0
scalar World.node[84].nic.mac1609_4 SNIRLostPackets 427
scalar World.node[84].nic.mac1609_4 RXTXLostPackets 29
scalar World.node[84].nic.mac1609_4 TotalLostPackets 456
scalar World.node[84].nic.mac1609_4 DroppedPacketsInMac 0
scalar World.node[84].nic.mac1609_4 TooLittleTime 0
scalar World.node[84].nic.mac1609_4 TimesIntoBackoff 609
scalar World.node[84].nic.mac1609_4 SlotsBackoff 2839
scalar World.node[84].nic.mac1609_4 NumInternalContention 0
scalar World.node[84].nic.mac1609_4 totalBusyTime 5.954798554655
scalar World.node[84].nic.mac1609_4 retriesExceeded:count 0
attr source org_car2x_veins_modules_mac_sigRetriesExceeded
scalar World.node[84].nic.mac1609_4 sentAcks:count 0
attr source org_car2x_veins_modules_mac_sigSentAck
scalar World.node[84].nic.mac1609_4 sentPackets:count 574
attr source org_car2x_veins_modules_mac_sigSentPacket
scalar World.node[84].nic.mac1609_4 collisions:count 0
attr source org_car2x_veins_modules_mac_sigCollision
scalar World.node[84].nic.mac1609_4 channelBusy:timeavg 0.17263060371192
attr source org_car2x_veins_modules_mac_sigChannelBusy
scalar World.node[85].appl.middleware.DenService transmission:count 30
attr source DenmSent
scalar World.node[85].appl.middleware.DenService reception:count 25479
attr source DenmReceived
scalar World.node[85].nic.phy80211p busyTime 0.1718630210263
scalar World.node[85].nic.mac1609_4 ReceivedUnicastPackets 0
scalar World.node[85].nic.mac1609_4 ReceivedBroadcasts 27638
scalar World.node[85].nic.mac1609_4 SentPackets 568
scalar World.node[85].nic.mac1609_4 SentAcknowledgements 0
scalar World.node[85].nic.mac1609_4 RetriesExceeded 0
scalar World.node[85].nic.mac1609_4 SNIRLostPackets 769
scalar World.node[85].nic.mac1609_4 RXTXLostPackets 40
scalar World.node[85].nic.mac1609_4 TotalLostPackets 809
scalar World.node[85].nic.mac1609_4 DroppedPacketsInMac 0
scalar World.node[85].nic.mac1609_4 TooLittleTime 0
scalar World.node[85].nic.mac1609_4 TimesIntoBackoff 735
scalar World.node[85].nic.mac1609_4 SlotsBackoff 5384
scalar World.node[85].nic.mac1609_4 NumInternalContention 0
scalar World.node[85].nic.mac1609_4 totalBusyTime 5.884128352638
scalar World.node[85].nic.mac1609_4 retriesExceeded:count 0
attr source org_car2x_veins_modules_mac_sigRetriesExceeded
scalar World.node[85].nic.mac1609_4 sentAcks:count 0
attr source org_car2x_veins_modules_mac_sigSentAck
scalar World.node[85].nic.mac1609_4 sentPackets:count 568
attr source org_car2x_veins_modules_mac_sigSentPacket
scalar World.node[85].nic.mac1609_4 collisions:count 0
attr source org_car2x_veins_modules_mac_sigCollision
scalar World.node[85].nic.mac1609_4 channelBusy:timeavg 0.17258314847198
attr source org_car2x_veins_modules_mac_sigChannelBusy
scalar World.node[86].appl.middleware.DenService transmission:count 230
attr source DenmSent
scalar World.node[86].appl.middleware.DenService reception:count 24710
attr source DenmReceived
scalar World.node[86].nic.phy80211p busyTime 0.17237377187972
scalar World.node[86].nic.mac1609_4 ReceivedUnicastPackets 0
scalar World.node[86].nic.mac1609_4 ReceivedBroadcasts 27093
scalar World.node[86].nic.mac1609_4 SentPackets 551
scalar World.node[86].nic.mac1609_4 SentAcknowledgements 0
scalar World.node[86].nic.mac1609_4 RetriesExceeded 0
scalar World.node[86].nic.mac1609_4 SNIRLostPackets 519
scalar World.node[86].nic.mac1609_4 RXTXLostPackets 0
scalar World.node[86].nic.mac1609_4 TotalLostPackets 519
scalar World.node[86].nic.mac1609_4 DroppedPacketsInMac 0
scalar World.node[86].nic.mac1609_4 TooLittleTime 0
scalar World.node[86].nic.mac1609_4 TimesIntoBackoff 890
scalar World.node[86].nic.mac1609_4 SlotsBackoff 4609
scalar World.node[86].nic.mac1609_4 NumInternalContention 0
scalar World.node[86].nic.mac1609_4 totalBusyTime 5.757902449896
scalar World.node[86].nic.mac1609_4 retriesExceeded:count 0
attr source org_car2x_veins_modules_mac_sigRetriesExceeded
scalar World.node[86].nic.mac1609_4 sentAcks:count 0
attr source org_car2x_veins_modules_mac_sigSentAck
scalar World.node[86].nic.mac1609_4 sentPackets:count 551
attr source org_car2x_veins_modules_mac_sigSentPacket
scalar World.node[86].nic.mac1609_4 collisions:count 0
attr source org_car2x_veins_modules_mac_sigCollision
scalar World.node[86].nic.mac1609_4 channelBusy:timeavg 0.17398390415832
attr source org_car2x_veins_modules_mac_sigChannelBusy
scalar World.node[87].appl.middleware.DenService transmission:count 220
attr source DenmSent
scalar World.node[87].appl.middleware.DenService reception:count 23553
attr source DenmReceived
scalar World.node[87].nic.phy80211p busyTime 0.1725666329805
scalar World.node[87].nic.mac1609_4 ReceivedUnicastPackets 0
scalar World.node[87].nic.mac1609_4 ReceivedBroadcasts 25866
scalar World.node[87].nic.mac1609_4 SentPackets 534
scalar World.node[87].nic.mac1609_4 SentAcknowledgements 0
scalar World.node[87].nic.mac1609_4 RetriesExceeded 0
scalar World.node[87].nic.mac1609_4 SNIRLostPackets 935
scalar World.node[87].nic.mac1609_4 RXTXLostPackets 0
scalar World.node[87].nic.mac1609_4 TotalLostPackets 935
scalar World.node[87].nic.mac1609_4 DroppedPacketsInMac 0
scalar World.node[87].nic.mac1609_4 TooLittleTime 0
scalar World.node[87].nic.mac1609_4 TimesIntoBackoff 534
scalar World.node[87].nic.mac1609_4 SlotsBackoff 2525
scalar World.node[87].nic.mac1609_4 NumInternalContention 0
scalar World.node[87].nic.mac1609_4 totalBusyTime 5.545002558893
scalar World.node[87].nic.mac1609_4 retriesExceeded:count 0
attr source org_car2x_veins_modules_mac_sigRetriesExceeded
scalar World.node[87].nic.mac1609_4 sentAcks:count 0
attr source org_car2x_veins_modules_mac_sigSentAck
scalar World.node[87].nic.mac1609_4 sentPackets:count 534
attr source org_car2x_veins_modules_mac_sigSentPacket
scalar World.node[87].nic.mac1609_4 collisions:count 0
attr source org_car2x_veins_modules_mac_sigCollision
scalar World.node[87].nic.mac1609_4 channelBusy:timeavg 0.17277135865466
attr source org_car2x_veins_modules_mac_sigChannelBusy
scalar World.node[88].appl.middleware.DenService transmission:count 210
attr source DenmSent
scalar World.node[88].appl.middleware.DenService reception:count 23959
attr source DenmReceived
scalar World.node[88].nic.phy80211p busyTime 0.17737130423144
scalar World.node[88].nic.mac1609_4 ReceivedUnicastPackets 0
scalar World.node[88].nic.mac1609_4 ReceivedBroadcasts 26232
scalar World.node[88].nic.mac1609_4 SentPackets 435
scalar World.node[88].nic.mac1609_4 SentAcknowledgements 0
scalar World.node[88].nic.mac1609_4 RetriesExceeded 0
scalar World.node[88].nic.mac1609_4 SNIRLostPackets 432
scalar World.node[88].nic.mac1609_4 RXTXLostPackets 8
scalar World.node[88].nic.mac1609_4 TotalLostPackets 440
scalar World.node[88].nic.mac1609_4 DroppedPacketsInMac 0
scalar World.node[88].nic.mac1609_4 TooLittleTime 0
scalar World.node[88].nic.mac1609_4 TimesIntoBackoff 435
scalar World.node[88].nic.mac1609_4 SlotsBackoff 2277
scalar World.node[88].nic.mac1609_4 NumInternalContention 0
scalar World.node[88].nic.mac1609_4 totalBusyTime 5.551740215398
scalar World.node[88].nic.mac1609_4 retriesExceeded:count 0
attr source org_car2x_veins_modules_mac_sigRetriesExceeded
scalar World.node[88].nic.mac1609_4 sentAcks:count 0
attr source org_car2x_veins_modules_mac_sigSentAck
scalar World.node[88].nic.mac1609_4 sentPackets:count 435
attr source org_car2x_veins_modules_mac_sigSentPacket
scalar World.node[88].nic.mac1609_4 collisions:count 0
attr source org_car2x_veins_modules_mac_sigCollision
scalar World.node[88].nic.mac1609_4 channelBusy:timeavg 0.17854438205665
attr source org_car2x_veins_modules_mac_sigChannelBusy
scalar World.node[90].appl.middleware.DenService transmission:count 186
attr source DenmSent
scalar World.node[90].appl.middleware.DenService reception:count 22061
attr source DenmReceived
scalar World.node[90].nic.phy80211p busyTime 0.17756155458452
scalar World.node[90].nic.mac1609_4 ReceivedUnicastPackets 0
scalar World.node[90].nic.mac1609_4 ReceivedBroadcasts 24215
scalar World.node[90].nic.mac1609_4 SentPackets 396
scalar World.node[90].nic.mac1609_4 SentAcknowledgements 0
scalar World.node[90].nic.mac1609_4 RetriesExceeded 0
scalar World.node[90].nic.mac1609_4 SNIRLostPackets 417
scalar World.node[90].nic.mac1609_4 RXTXLostPackets 0
scalar World.node[90].nic.mac1609_4 TotalLostPackets 417
scalar World.node[90].nic.mac1609_4 DroppedPacketsInMac 0
scalar World.node[90].nic.mac1609_4 TooLittleTime 0
scalar World.node[90].nic.mac1609_4 TimesIntoBackoff 399
scalar World.node[90].nic.mac1609_4 SlotsBackoff 2030
scalar World.node[90].nic.mac1609_4 NumInternalContention 0
scalar World.node[90].nic.mac1609_4 totalBusyTime 5.12576012216
scalar World.node[90].nic.mac1609_4 retriesExceeded:count 0
attr source org_car2x_veins_modules_mac_sigRetriesExceeded
scalar World.node[90].nic.mac1609_4 sentAcks:count 0
attr source org_car2x_veins_modules_mac_sigSentAck
scalar World.node[90].nic.mac1609_4 sentPackets:count 396
attr source org_car2x_veins_modules_mac_sigSentPacket
scalar World.node[90].nic.mac1609_4 collisions:count 0
attr source org_car2x_veins_modules_mac_sigCollision
scalar World.node[90].nic.mac1609_4 channelBusy:timeavg 0.17863242776847
attr source org_car2x_veins_modules_mac_sigChannelBusy
scalar World.node[89].appl.middleware.DenService transmission:count 0
attr source DenmSent
scalar World.node[89].appl.middleware.DenService reception:count 21821
attr source DenmReceived
scalar World.node[89].nic.phy80211p busyTime 0.17262313511992
scalar World.node[89].nic.mac1609_4 ReceivedUnicastPackets 0
scalar World.node[89].nic.mac1609_4 ReceivedBroadcasts 23637
scalar World.node[89].nic.mac1609_4 SentPackets 484
scalar World.node[89].nic.mac1609_4 SentAcknowledgements 0
scalar World.node[89].nic.mac1609_4 RetriesExceeded 0
scalar World.node[89].nic.mac1609_4 SNIRLostPackets 695
scalar World.node[89].nic.mac1609_4 RXTXLostPackets 0
scalar World.node[89].nic.mac1609_4 TotalLostPackets 695
scalar World.node[89].nic.mac1609_4 DroppedPacketsInMac 0
scalar World.node[89].nic.mac1609_4 TooLittleTime 0
scalar World.node[89].nic.mac1609_4 TimesIntoBackoff 492
scalar World.node[89].nic.mac1609_4 SlotsBackoff 3824
scalar World.node[89].nic.mac1609_4 NumInternalContention 0
scalar World.node[89].nic.mac1609_4 totalBusyTime 5.040976118632
scalar World.node[89].nic.mac1609_4 retriesExceeded:count 0
attr source org_car2x_veins_modules_mac_sigRetriesExceeded
scalar World.node[89].nic.mac1609_4 sentAcks:count 0
attr source org_car2x_veins_modules_mac_sigSentAck
scalar World.node[89].nic.mac1609_4 sentPackets:count 484
attr source org_car2x_veins_modules_mac_sigSentPacket
scalar World.node[89].nic.mac1609_4 collisions:count 0
attr source org_car2x_veins_modules_mac_sigCollision
scalar World.node[89].nic.mac1609_4 channelBusy:timeavg 0.17326243627775
attr source org_car2x_veins_modules_mac_sigChannelBusy
scalar World.node[93].appl.middleware.DenService transmission:count 160
attr source DenmSent
scalar World.node[93].appl.middleware.DenService reception:count 19675
attr source DenmReceived
scalar World.node[93].nic.phy80211p busyTime 0.17446863853247
scalar World.node[93].nic.mac1609_4 ReceivedUnicastPackets 0
scalar World.node[93].nic.mac1609_4 ReceivedBroadcasts 21528
scalar World.node[93].nic.mac1609_4 SentPackets 419
scalar World.node[93].nic.mac1609_4 SentAcknowledgements 0
scalar World.node[93].nic.mac1609_4 RetriesExceeded 0
scalar World.node[93].nic.mac1609_4 SNIRLostPackets 497
scalar World.node[93].nic.mac1609_4 RXTXLostPackets 4
scalar World.node[93].nic.mac1609_4 TotalLostPackets 501
scalar World.node[93].nic.mac1609_4 DroppedPacketsInMac 0
scalar World.node[93].nic.mac1609_4 TooLittleTime 0
scalar World.node[93].nic.mac1609_4 TimesIntoBackoff 436
scalar World.node[93].nic.mac1609_4 SlotsBackoff 2206
scalar World.node[93].nic.mac1609_4 NumInternalContention 0
scalar World.node[93].nic.mac1609_4 totalBusyTime 4.583643237781
scalar World.node[93].nic.mac1609_4 retriesExceeded:count 0
attr source org_car2x_veins_modules_mac_sigRetriesExceeded
scalar World.node[93].nic.mac1609_4 sentAcks:count 0
attr source org_car2x_veins_modules_mac_sigSentAck
scalar World.node[93].nic.mac1609_4 sentPackets:count 419
attr source org_car2x_veins_modules_mac_sigSentPacket
scalar World.node[93].nic.mac1609_4 collisions:count 0
attr source org_car2x_veins_modules_mac_sigCollision
scalar World.node[93].nic.mac1609_4 channelBusy:timeavg 0.17565583474076
attr source org_car2x_veins_modules_mac_sigChannelBusy
scalar World.node[97].appl.middleware.DenService transmission:count 115
attr source DenmSent
scalar World.node[97].appl.middleware.DenService reception:count 16368
attr source DenmReceived
scalar World.node[97].nic.phy80211p busyTime 0.1750633531574
scalar World.node[97].nic.mac1609_4 ReceivedUnicastPackets 0
scalar World.node[97].nic.mac1609_4 ReceivedBroadcasts 18003
scalar World.node[97].nic.mac1609_4 SentPackets 279
scalar World.node[97].nic.mac1609_4 SentAcknowledgements 0
scalar World.node[97].nic.mac1609_4 RetriesExceeded 0
scalar World.node[97].nic.mac1609_4 SNIRLostPackets 346
scalar World.node[97].nic.mac1609_4 RXTXLostPackets 26
scalar World.node[97].nic.mac1609_4 TotalLostPackets 372
scalar World.node[97].nic.mac1609_4 DroppedPacketsInMac 0
scalar World.node[97].nic.mac1609_4 TooLittleTime 0
scalar World.node[97].nic.mac1609_4 TimesIntoBackoff 404
scalar World.node[97].nic.mac1609_4 SlotsBackoff 2119
scalar World.node[97].nic.mac1609_4 NumInternalContention 0
scalar World.node[97].nic.mac1609_4 totalBusyTime 3.8170801054
scalar World.node[97].nic.mac1609_4 retriesExceeded:count 0
attr source org_car2x_veins_modules_mac_sigRetriesExceeded
scalar World.node[97].nic.mac1609_4 sentAcks:count 0
attr source org_car2x_veins_modules_mac_sigSentAck
scalar World.node[97].nic.mac1609_4 sentPackets:count 279
attr source org_car2x_veins_modules_mac_sigSentPacket
scalar World.node[97].nic.mac1609_4 collisions:count 0
attr source org_car2x_veins_modules_mac_sigCollision
scalar World.node[97].nic.mac1609_4 channelBusy:timeavg 0.17594727052651
attr source org_car2x_veins_modules_mac_sigChannelBusy
scalar World.node[96].appl.middleware.DenService transmission:count 120
attr source DenmSent
scalar World.node[96].appl.middleware.DenService reception:count 16037
attr source DenmReceived
scalar World.node[96].nic.phy80211p busyTime 0.17098516511745
scalar World.node[96].nic.mac1609_4 ReceivedUnicastPackets 0
scalar World.node[96].nic.mac1609_4 ReceivedBroadcasts 17546
scalar World.node[96].nic.mac1609_4 SentPackets 367
scalar World.node[96].nic.mac1609_4 SentAcknowledgements 0
scalar World.node[96].nic.mac1609_4 RetriesExceeded 0
scalar World.node[96].nic.mac1609_4 SNIRLostPackets 747
scalar World.node[96].nic.mac1609_4 RXTXLostPackets 38
scalar World.node[96].nic.mac1609_4 TotalLostPackets 785
scalar World.node[96].nic.mac1609_4 DroppedPacketsInMac 0
scalar World.node[96].nic.mac1609_4 TooLittleTime 0
scalar World.node[96].nic.mac1609_4 TimesIntoBackoff 684
scalar World.node[96].nic.mac1609_4 SlotsBackoff 4061
scalar World.node[96].nic.mac1609_4 NumInternalContention 0
scalar World.node[96].nic.mac1609_4 totalBusyTime 3.762078578098
scalar World.node[96].nic.mac1609_4 retriesExceeded:count 0
attr source org_car2x_veins_modules_mac_sigRetriesExceeded
scalar World.node[96].nic.mac1609_4 sentAcks:count 0
attr source org_car2x_veins_modules_mac_sigSentAck
scalar World.node[96].nic.mac1609_4 sentPackets:count 367
attr source org_car2x_veins_modules_mac_sigSentPacket
scalar World.node[96].nic.mac1609_4 collisions:count 0
attr source org_car2x_veins_modules_mac_sigCollision
scalar World.node[96].nic.mac1609_4 channelBusy:timeavg 0.17027252377584
attr source org_car2x_veins_modules_mac_sigChannelBusy
scalar World.node[103].appl.middleware.DenService transmission:count 0
attr source DenmSent
scalar World.node[103].appl.middleware.DenService reception:count 11924
attr source DenmReceived
scalar World.node[103].nic.phy80211p busyTime 0.16782512884986
scalar World.node[103].nic.mac1609_4 ReceivedUnicastPackets 0
scalar World.node[103].nic.mac1609_4 ReceivedBroadcasts 13012
scalar World.node[103].nic.mac1609_4 SentPackets 259
scalar World.node[103].nic.mac1609_4 SentAcknowledgements 0
scalar World.node[103].nic.mac1609_4 RetriesExceeded 0
scalar World.node[103].nic.mac1609_4 SNIRLostPackets 354
scalar World.node[103].nic.mac1609_4 RXTXLostPackets 5
scalar World.node[103].nic.mac1609_4 TotalLostPackets 359
scalar World.node[103].nic.mac1609_4 DroppedPacketsInMac 0
scalar World.node[103].nic.mac1609_4 TooLittleTime 0
scalar World.node[103].nic.mac1609_4 TimesIntoBackoff 279
scalar World.node[103].nic.mac1609_4 SlotsBackoff 2046
scalar World.node[103].nic.mac1609_4 NumInternalContention 0
scalar World.node[103].nic.mac1609_4 totalBusyTime 2.786859208535
scalar World.node[103].nic.mac1609_4 retriesExceeded:count 0
attr source org_car2x_veins_modules_mac_sigRetriesExceeded
scalar World.node[103].nic.mac1609_4 sentAcks:count 0
attr source org_car2x_veins_modules_mac_sigSentAck
scalar World.node[103].nic.mac1609_4 sentPackets:count 259
attr source org_car2x_veins_modules_mac_sigSentPacket
scalar World.node[103].nic.mac1609_4 collisions:count 0
attr source org_car2x_veins_modules_mac_sigCollision
scalar World.node[103].nic.mac1609_4 channelBusy:timeavg 0.16895734017638
attr source org_car2x_veins_modules_mac_sigChannelBusy

