version 2
run veins-0-20250114-22:56:59-112325
attr configname veins
attr datetime 20250114-22:56:59
attr experiment veins
attr inifile omnetpp.ini
attr iterationvars ""
attr iterationvarsf ""
attr measurement ""
attr network artery.veins.World
attr processid 112325
attr repetition 0
attr replication #0
attr resultdir results
attr runnumber 0
attr seedset 0
param *.playgroundSizeX 2000m
param *.playgroundSizeY 1200m
param *.playgroundSizeZ 50m
param *.connectionManager.maxInterfDist 500m
param *.connectionManager.sendDirect true
param *.connectionManager.coreDebug false
param *.node[*].nic.mac1609_4.txPower 200mW
param *.node[*].nic.phy80211p.decider "xmldoc(\"config.xml\")"
param *.node[*].nic.phy80211p.analogueModels "xmldoc(\"config.xml\")"
param *.node[*].appl.middleware.updateInterval 0.1s
param *.node[*].appl.middleware.datetime "\"2025-03-10 12:00:00\""
param *.node[*].appl.middleware.services "xmldoc(\"services.xml\")"
param *.node[*].appl.middleware.DenService.useCases "xmldoc(\"den-use-cases.xml\")"
param *.withStoryboard true
param *.storyboard.python "\"demo\""
param *.traci.launcher.additionalOptions "\"--log-buffered --log-file=sumo_warnings.log\""
param *.traci.core.version -1
param *.traci.launcher.typename "\"PosixLauncher\""
param *.traci.launcher.sumocfg "\"Slott.sumo.cfg\""
param *.traci.launcher.sumo "\"sumo\""
param *.node[*].wlan[*].typename "\"VanetNic\""
param *.node[*].wlan[*].radio.channelNumber 180
param *.node[*].wlan[*].radio.carrierFrequency "5.9 GHz"
param *.node[*].wlan[*].radio.transmitter.power "200 mW"
param *.node[*].middleware.updateInterval 0.1s
param *.node[*].middleware.datetime "\"2025-03-10 12:00:00\""
param *.node[*].middleware.services "xmldoc(\"services.xml\")"
param *.node[*].middleware.DenService.useCases "xmldoc(\"den-use-cases.xml\")"

scalar World.traci.launcher port 46877
scalar World.node[3].appl.middleware.DenService transmission:count 105
attr source DenmSent
scalar World.node[3].appl.middleware.DenService reception:count 1397
attr source DenmReceived
scalar World.node[3].nic.phy80211p busyTime 0.020317669902912
scalar World.node[3].nic.mac1609_4 ReceivedUnicastPackets 0
scalar World.node[3].nic.mac1609_4 ReceivedBroadcasts 1973
scalar World.node[3].nic.mac1609_4 SentPackets 312
scalar World.node[3].nic.mac1609_4 SentAcknowledgements 0
scalar World.node[3].nic.mac1609_4 RetriesExceeded 0
scalar World.node[3].nic.mac1609_4 SNIRLostPackets 0
scalar World.node[3].nic.mac1609_4 RXTXLostPackets 0
scalar World.node[3].nic.mac1609_4 TotalLostPackets 0
scalar World.node[3].nic.mac1609_4 DroppedPacketsInMac 0
scalar World.node[3].nic.mac1609_4 TooLittleTime 0
scalar World.node[3].nic.mac1609_4 TimesIntoBackoff 312
scalar World.node[3].nic.mac1609_4 SlotsBackoff 1720
scalar World.node[3].nic.mac1609_4 NumInternalContention 0
scalar World.node[3].nic.mac1609_4 totalBusyTime 0.484232
scalar World.node[3].nic.mac1609_4 retriesExceeded:count 0
attr source org_car2x_veins_modules_mac_sigRetriesExceeded
scalar World.node[3].nic.mac1609_4 sentAcks:count 0
attr source org_car2x_veins_modules_mac_sigSentAck
scalar World.node[3].nic.mac1609_4 sentPackets:count 312
attr source org_car2x_veins_modules_mac_sigSentPacket
scalar World.node[3].nic.mac1609_4 collisions:count 0
attr source org_car2x_veins_modules_mac_sigCollision
scalar World.node[3].nic.mac1609_4 channelBusy:timeavg 0.02350640776699
attr source org_car2x_veins_modules_mac_sigChannelBusy
scalar World.node[9].appl.middleware.DenService transmission:count 8
attr source DenmSent
scalar World.node[9].appl.middleware.DenService reception:count 1559
attr source DenmReceived
scalar World.node[9].nic.phy80211p busyTime 0.03436110091743
scalar World.node[9].nic.mac1609_4 ReceivedUnicastPackets 0
scalar World.node[9].nic.mac1609_4 ReceivedBroadcasts 1786
scalar World.node[9].nic.mac1609_4 SentPackets 181
scalar World.node[9].nic.mac1609_4 SentAcknowledgements 0
scalar World.node[9].nic.mac1609_4 RetriesExceeded 0
scalar World.node[9].nic.mac1609_4 SNIRLostPackets 0
scalar World.node[9].nic.mac1609_4 RXTXLostPackets 0
scalar World.node[9].nic.mac1609_4 TotalLostPackets 0
scalar World.node[9].nic.mac1609_4 DroppedPacketsInMac 0
scalar World.node[9].nic.mac1609_4 TooLittleTime 0
scalar World.node[9].nic.mac1609_4 TimesIntoBackoff 181
scalar World.node[9].nic.mac1609_4 SlotsBackoff 1297
scalar World.node[9].nic.mac1609_4 NumInternalContention 0
scalar World.node[9].nic.mac1609_4 totalBusyTime 0.413237
scalar World.node[9].nic.mac1609_4 retriesExceeded:count 0
attr source org_car2x_veins_modules_mac_sigRetriesExceeded
scalar World.node[9].nic.mac1609_4 sentAcks:count 0
attr source org_car2x_veins_modules_mac_sigSentAck
scalar World.node[9].nic.mac1609_4 sentPackets:count 181
attr source org_car2x_veins_modules_mac_sigSentPacket
scalar World.node[9].nic.mac1609_4 collisions:count 0
attr source org_car2x_veins_modules_mac_sigCollision
scalar World.node[9].nic.mac1609_4 channelBusy:timeavg 0.037911651376146
attr source org_car2x_veins_modules_mac_sigChannelBusy
scalar World.node[10].appl.middleware.DenService transmission:count 49
attr source DenmSent
scalar World.node[10].appl.middleware.DenService reception:count 2112
attr source DenmReceived
scalar World.node[10].nic.phy80211p busyTime 0.034754666666665
scalar World.node[10].nic.mac1609_4 ReceivedUnicastPackets 0
scalar World.node[10].nic.mac1609_4 ReceivedBroadcasts 2491
scalar World.node[10].nic.mac1609_4 SentPackets 249
scalar World.node[10].nic.mac1609_4 SentAcknowledgements 0
scalar World.node[10].nic.mac1609_4 RetriesExceeded 0
scalar World.node[10].nic.mac1609_4 SNIRLostPackets 0
scalar World.node[10].nic.mac1609_4 RXTXLostPackets 0
scalar World.node[10].nic.mac1609_4 TotalLostPackets 0
scalar World.node[10].nic.mac1609_4 DroppedPacketsInMac 0
scalar World.node[10].nic.mac1609_4 TooLittleTime 0
scalar World.node[10].nic.mac1609_4 TimesIntoBackoff 249
scalar World.node[10].nic.mac1609_4 SlotsBackoff 1560
scalar World.node[10].nic.mac1609_4 NumInternalContention 0
scalar World.node[10].nic.mac1609_4 totalBusyTime 0.575473
scalar World.node[10].nic.mac1609_4 retriesExceeded:count 0
attr source org_car2x_veins_modules_mac_sigRetriesExceeded
scalar World.node[10].nic.mac1609_4 sentAcks:count 0
attr source org_car2x_veins_modules_mac_sigSentAck
scalar World.node[10].nic.mac1609_4 sentPackets:count 249
attr source org_car2x_veins_modules_mac_sigSentPacket
scalar World.node[10].nic.mac1609_4 collisions:count 0
attr source org_car2x_veins_modules_mac_sigCollision
scalar World.node[10].nic.mac1609_4 channelBusy:timeavg 0.038364866666665
attr source org_car2x_veins_modules_mac_sigChannelBusy
scalar World.node[20].appl.middleware.DenService transmission:count 0
attr source DenmSent
scalar World.node[20].appl.middleware.DenService reception:count 514
attr source DenmReceived
scalar World.node[20].nic.phy80211p busyTime 0.058384
scalar World.node[20].nic.mac1609_4 ReceivedUnicastPackets 0
scalar World.node[20].nic.mac1609_4 ReceivedBroadcasts 565
scalar World.node[20].nic.mac1609_4 SentPackets 32
scalar World.node[20].nic.mac1609_4 SentAcknowledgements 0
scalar World.node[20].nic.mac1609_4 RetriesExceeded 0
scalar World.node[20].nic.mac1609_4 SNIRLostPackets 0
scalar World.node[20].nic.mac1609_4 RXTXLostPackets 0
scalar World.node[20].nic.mac1609_4 TotalLostPackets 0
scalar World.node[20].nic.mac1609_4 DroppedPacketsInMac 0
scalar World.node[20].nic.mac1609_4 TooLittleTime 0
scalar World.node[20].nic.mac1609_4 TimesIntoBackoff 32
scalar World.node[20].nic.mac1609_4 SlotsBackoff 211
scalar World.node[20].nic.mac1609_4 NumInternalContention 0
scalar World.node[20].nic.mac1609_4 totalBusyTime 0.123736
scalar World.node[20].nic.mac1609_4 retriesExceeded:count 0
attr source org_car2x_veins_modules_mac_sigRetriesExceeded
scalar World.node[20].nic.mac1609_4 sentAcks:count 0
attr source org_car2x_veins_modules_mac_sigSentAck
scalar World.node[20].nic.mac1609_4 sentPackets:count 32
attr source org_car2x_veins_modules_mac_sigSentPacket
scalar World.node[20].nic.mac1609_4 collisions:count 0
attr source org_car2x_veins_modules_mac_sigCollision
scalar World.node[20].nic.mac1609_4 channelBusy:timeavg 0.061868000000001
attr source org_car2x_veins_modules_mac_sigChannelBusy
scalar World.node[1].appl.middleware.DenService transmission:count 220
attr source DenmSent
scalar World.node[1].appl.middleware.DenService reception:count 6604
attr source DenmReceived
scalar World.node[1].nic.phy80211p busyTime 0.03000423280423
scalar World.node[1].nic.mac1609_4 ReceivedUnicastPackets 0
scalar World.node[1].nic.mac1609_4 ReceivedBroadcasts 8085
scalar World.node[1].nic.mac1609_4 SentPackets 817
scalar World.node[1].nic.mac1609_4 SentAcknowledgements 0
scalar World.node[1].nic.mac1609_4 RetriesExceeded 0
scalar World.node[1].nic.mac1609_4 SNIRLostPackets 0
scalar World.node[1].nic.mac1609_4 RXTXLostPackets 0
scalar World.node[1].nic.mac1609_4 TotalLostPackets 0
scalar World.node[1].nic.mac1609_4 DroppedPacketsInMac 0
scalar World.node[1].nic.mac1609_4 TooLittleTime 0
scalar World.node[1].nic.mac1609_4 TimesIntoBackoff 817
scalar World.node[1].nic.mac1609_4 SlotsBackoff 3052
scalar World.node[1].nic.mac1609_4 NumInternalContention 0
scalar World.node[1].nic.mac1609_4 totalBusyTime 1.869497
scalar World.node[1].nic.mac1609_4 retriesExceeded:count 0
attr source org_car2x_veins_modules_mac_sigRetriesExceeded
scalar World.node[1].nic.mac1609_4 sentAcks:count 0
attr source org_car2x_veins_modules_mac_sigSentAck
scalar World.node[1].nic.mac1609_4 sentPackets:count 817
attr source org_car2x_veins_modules_mac_sigSentPacket
scalar World.node[1].nic.mac1609_4 collisions:count 0
attr source org_car2x_veins_modules_mac_sigCollision
scalar World.node[1].nic.mac1609_4 channelBusy:timeavg 0.032971728395059
attr source org_car2x_veins_modules_mac_sigChannelBusy
scalar World.node[2].appl.middleware.DenService transmission:count 460
attr source DenmSent
scalar World.node[2].appl.middleware.DenService reception:count 7381
attr source DenmReceived
scalar World.node[2].nic.phy80211p busyTime 0.032475151515149
scalar World.node[2].nic.mac1609_4 ReceivedUnicastPackets 0
scalar World.node[2].nic.mac1609_4 ReceivedBroadcasts 8687
scalar World.node[2].nic.mac1609_4 SentPackets 861
scalar World.node[2].nic.mac1609_4 SentAcknowledgements 0
scalar World.node[2].nic.mac1609_4 RetriesExceeded 0
scalar World.node[2].nic.mac1609_4 SNIRLostPackets 0
scalar World.node[2].nic.mac1609_4 RXTXLostPackets 0
scalar World.node[2].nic.mac1609_4 TotalLostPackets 0
scalar World.node[2].nic.mac1609_4 DroppedPacketsInMac 0
scalar World.node[2].nic.mac1609_4 TooLittleTime 0
scalar World.node[2].nic.mac1609_4 TimesIntoBackoff 861
scalar World.node[2].nic.mac1609_4 SlotsBackoff 3392
scalar World.node[2].nic.mac1609_4 NumInternalContention 0
scalar World.node[2].nic.mac1609_4 totalBusyTime 1.998917
scalar World.node[2].nic.mac1609_4 retriesExceeded:count 0
attr source org_car2x_veins_modules_mac_sigRetriesExceeded
scalar World.node[2].nic.mac1609_4 sentAcks:count 0
attr source org_car2x_veins_modules_mac_sigSentAck
scalar World.node[2].nic.mac1609_4 sentPackets:count 861
attr source org_car2x_veins_modules_mac_sigSentPacket
scalar World.node[2].nic.mac1609_4 collisions:count 0
attr source org_car2x_veins_modules_mac_sigCollision
scalar World.node[2].nic.mac1609_4 channelBusy:timeavg 0.03563131907308
attr source org_car2x_veins_modules_mac_sigChannelBusy
scalar World.node[11].appl.middleware.DenService transmission:count 257
attr source DenmSent
scalar World.node[11].appl.middleware.DenService reception:count 6814
attr source DenmReceived
scalar World.node[11].nic.phy80211p busyTime 0.045883575418991
scalar World.node[11].nic.mac1609_4 ReceivedUnicastPackets 0
scalar World.node[11].nic.mac1609_4 ReceivedBroadcasts 7873
scalar World.node[11].nic.mac1609_4 SentPackets 596
scalar World.node[11].nic.mac1609_4 SentAcknowledgements 0
scalar World.node[11].nic.mac1609_4 RetriesExceeded 0
scalar World.node[11].nic.mac1609_4 SNIRLostPackets 0
scalar World.node[11].nic.mac1609_4 RXTXLostPackets 0
scalar World.node[11].nic.mac1609_4 TotalLostPackets 0
scalar World.node[11].nic.mac1609_4 DroppedPacketsInMac 0
scalar World.node[11].nic.mac1609_4 TooLittleTime 0
scalar World.node[11].nic.mac1609_4 TimesIntoBackoff 596
scalar World.node[11].nic.mac1609_4 SlotsBackoff 2810
scalar World.node[11].nic.mac1609_4 NumInternalContention 0
scalar World.node[11].nic.mac1609_4 totalBusyTime 1.766468
scalar World.node[11].nic.mac1609_4 retriesExceeded:count 0
attr source org_car2x_veins_modules_mac_sigRetriesExceeded
scalar World.node[11].nic.mac1609_4 sentAcks:count 0
attr source org_car2x_veins_modules_mac_sigSentAck
scalar World.node[11].nic.mac1609_4 sentPackets:count 596
attr source org_car2x_veins_modules_mac_sigSentPacket
scalar World.node[11].nic.mac1609_4 collisions:count 0
attr source org_car2x_veins_modules_mac_sigCollision
scalar World.node[11].nic.mac1609_4 channelBusy:timeavg 0.049342681564241
attr source org_car2x_veins_modules_mac_sigChannelBusy
scalar World.node[6].appl.middleware.DenService transmission:count 450
attr source DenmSent
scalar World.node[6].appl.middleware.DenService reception:count 10172
attr source DenmReceived
scalar World.node[6].nic.phy80211p busyTime 0.044730053097342
scalar World.node[6].nic.mac1609_4 ReceivedUnicastPackets 0
scalar World.node[6].nic.mac1609_4 ReceivedBroadcasts 12087
scalar World.node[6].nic.mac1609_4 SentPackets 941
scalar World.node[6].nic.mac1609_4 SentAcknowledgements 0
scalar World.node[6].nic.mac1609_4 RetriesExceeded 0
scalar World.node[6].nic.mac1609_4 SNIRLostPackets 0
scalar World.node[6].nic.mac1609_4 RXTXLostPackets 0
scalar World.node[6].nic.mac1609_4 TotalLostPackets 0
scalar World.node[6].nic.mac1609_4 DroppedPacketsInMac 0
scalar World.node[6].nic.mac1609_4 TooLittleTime 0
scalar World.node[6].nic.mac1609_4 TimesIntoBackoff 941
scalar World.node[6].nic.mac1609_4 SlotsBackoff 3967
scalar World.node[6].nic.mac1609_4 NumInternalContention 0
scalar World.node[6].nic.mac1609_4 totalBusyTime 2.719589
scalar World.node[6].nic.mac1609_4 retriesExceeded:count 0
attr source org_car2x_veins_modules_mac_sigRetriesExceeded
scalar World.node[6].nic.mac1609_4 sentAcks:count 0
attr source org_car2x_veins_modules_mac_sigSentAck
scalar World.node[6].nic.mac1609_4 sentPackets:count 941
attr source org_car2x_veins_modules_mac_sigSentPacket
scalar World.node[6].nic.mac1609_4 collisions:count 0
attr source org_car2x_veins_modules_mac_sigCollision
scalar World.node[6].nic.mac1609_4 channelBusy:timeavg 0.048134318584068
attr source org_car2x_veins_modules_mac_sigChannelBusy
scalar World.node[0].appl.middleware.DenService transmission:count 60
attr source DenmSent
scalar World.node[0].appl.middleware.DenService reception:count 10697
attr source DenmReceived
scalar World.node[0].nic.phy80211p busyTime 0.035626980392155
scalar World.node[0].nic.mac1609_4 ReceivedUnicastPackets 0
scalar World.node[0].nic.mac1609_4 ReceivedBroadcasts 12994
scalar World.node[0].nic.mac1609_4 SentPackets 1154
scalar World.node[0].nic.mac1609_4 SentAcknowledgements 0
scalar World.node[0].nic.mac1609_4 RetriesExceeded 0
scalar World.node[0].nic.mac1609_4 SNIRLostPackets 0
scalar World.node[0].nic.mac1609_4 RXTXLostPackets 0
scalar World.node[0].nic.mac1609_4 TotalLostPackets 0
scalar World.node[0].nic.mac1609_4 DroppedPacketsInMac 0
scalar World.node[0].nic.mac1609_4 TooLittleTime 0
scalar World.node[0].nic.mac1609_4 TimesIntoBackoff 1174
scalar World.node[0].nic.mac1609_4 SlotsBackoff 4412
scalar World.node[0].nic.mac1609_4 NumInternalContention 3
scalar World.node[0].nic.mac1609_4 totalBusyTime 2.959858
scalar World.node[0].nic.mac1609_4 retriesExceeded:count 0
attr source org_car2x_veins_modules_mac_sigRetriesExceeded
scalar World.node[0].nic.mac1609_4 sentAcks:count 0
attr source org_car2x_veins_modules_mac_sigSentAck
scalar World.node[0].nic.mac1609_4 sentPackets:count 1154
attr source org_car2x_veins_modules_mac_sigSentPacket
scalar World.node[0].nic.mac1609_4 collisions:count 0
attr source org_car2x_veins_modules_mac_sigCollision
scalar World.node[0].nic.mac1609_4 channelBusy:timeavg 0.038693327520874
attr source org_car2x_veins_modules_mac_sigChannelBusy
scalar World.node[19].appl.middleware.DenService transmission:count 0
attr source DenmSent
scalar World.node[19].appl.middleware.DenService reception:count 6601
attr source DenmReceived
scalar World.node[19].nic.phy80211p busyTime 0.063339419087132
scalar World.node[19].nic.mac1609_4 ReceivedUnicastPackets 0
scalar World.node[19].nic.mac1609_4 ReceivedBroadcasts 7321
scalar World.node[19].nic.mac1609_4 SentPackets 401
scalar World.node[19].nic.mac1609_4 SentAcknowledgements 0
scalar World.node[19].nic.mac1609_4 RetriesExceeded 0
scalar World.node[19].nic.mac1609_4 SNIRLostPackets 0
scalar World.node[19].nic.mac1609_4 RXTXLostPackets 0
scalar World.node[19].nic.mac1609_4 TotalLostPackets 0
scalar World.node[19].nic.mac1609_4 DroppedPacketsInMac 0
scalar World.node[19].nic.mac1609_4 TooLittleTime 0
scalar World.node[19].nic.mac1609_4 TimesIntoBackoff 401
scalar World.node[19].nic.mac1609_4 SlotsBackoff 2957
scalar World.node[19].nic.mac1609_4 NumInternalContention 0
scalar World.node[19].nic.mac1609_4 totalBusyTime 1.613785
scalar World.node[19].nic.mac1609_4 retriesExceeded:count 0
attr source org_car2x_veins_modules_mac_sigRetriesExceeded
scalar World.node[19].nic.mac1609_4 sentAcks:count 0
attr source org_car2x_veins_modules_mac_sigSentAck
scalar World.node[19].nic.mac1609_4 sentPackets:count 401
attr source org_car2x_veins_modules_mac_sigSentPacket
scalar World.node[19].nic.mac1609_4 collisions:count 0
attr source org_car2x_veins_modules_mac_sigCollision
scalar World.node[19].nic.mac1609_4 channelBusy:timeavg 0.066962033195015
attr source org_car2x_veins_modules_mac_sigChannelBusy
scalar World.node[30].appl.middleware.DenService transmission:count 0
attr source DenmSent
scalar World.node[30].appl.middleware.DenService reception:count 28
attr source DenmReceived
scalar World.node[30].nic.phy80211p busyTime 0.06344
scalar World.node[30].nic.mac1609_4 ReceivedUnicastPackets 0
scalar World.node[30].nic.mac1609_4 ReceivedBroadcasts 31
scalar World.node[30].nic.mac1609_4 SentPackets 1
scalar World.node[30].nic.mac1609_4 SentAcknowledgements 0
scalar World.node[30].nic.mac1609_4 RetriesExceeded 0
scalar World.node[30].nic.mac1609_4 SNIRLostPackets 0
scalar World.node[30].nic.mac1609_4 RXTXLostPackets 0
scalar World.node[30].nic.mac1609_4 TotalLostPackets 0
scalar World.node[30].nic.mac1609_4 DroppedPacketsInMac 0
scalar World.node[30].nic.mac1609_4 TooLittleTime 0
scalar World.node[30].nic.mac1609_4 TimesIntoBackoff 1
scalar World.node[30].nic.mac1609_4 SlotsBackoff 12
scalar World.node[30].nic.mac1609_4 NumInternalContention 0
scalar World.node[30].nic.mac1609_4 totalBusyTime 0.006545
scalar World.node[30].nic.mac1609_4 retriesExceeded:count 0
attr source org_car2x_veins_modules_mac_sigRetriesExceeded
scalar World.node[30].nic.mac1609_4 sentAcks:count 0
attr source org_car2x_veins_modules_mac_sigSentAck
scalar World.node[30].nic.mac1609_4 sentPackets:count 1
attr source org_car2x_veins_modules_mac_sigSentPacket
scalar World.node[30].nic.mac1609_4 collisions:count 0
attr source org_car2x_veins_modules_mac_sigCollision
scalar World.node[30].nic.mac1609_4 channelBusy:timeavg 0.06545
attr source org_car2x_veins_modules_mac_sigChannelBusy
scalar World.node[8].appl.middleware.DenService transmission:count 0
attr source DenmSent
scalar World.node[8].appl.middleware.DenService reception:count 13652
attr source DenmReceived
scalar World.node[8].nic.phy80211p busyTime 0.050057812995243
scalar World.node[8].nic.mac1609_4 ReceivedUnicastPackets 0
scalar World.node[8].nic.mac1609_4 ReceivedBroadcasts 15195
scalar World.node[8].nic.mac1609_4 SentPackets 1050
scalar World.node[8].nic.mac1609_4 SentAcknowledgements 0
scalar World.node[8].nic.mac1609_4 RetriesExceeded 0
scalar World.node[8].nic.mac1609_4 SNIRLostPackets 0
scalar World.node[8].nic.mac1609_4 RXTXLostPackets 0
scalar World.node[8].nic.mac1609_4 TotalLostPackets 0
scalar World.node[8].nic.mac1609_4 DroppedPacketsInMac 0
scalar World.node[8].nic.mac1609_4 TooLittleTime 0
scalar World.node[8].nic.mac1609_4 TimesIntoBackoff 1050
scalar World.node[8].nic.mac1609_4 SlotsBackoff 7897
scalar World.node[8].nic.mac1609_4 NumInternalContention 0
scalar World.node[8].nic.mac1609_4 totalBusyTime 3.391282
scalar World.node[8].nic.mac1609_4 retriesExceeded:count 0
attr source org_car2x_veins_modules_mac_sigRetriesExceeded
scalar World.node[8].nic.mac1609_4 sentAcks:count 0
attr source org_car2x_veins_modules_mac_sigSentAck
scalar World.node[8].nic.mac1609_4 sentPackets:count 1050
attr source org_car2x_veins_modules_mac_sigSentPacket
scalar World.node[8].nic.mac1609_4 collisions:count 0
attr source org_car2x_veins_modules_mac_sigCollision
scalar World.node[8].nic.mac1609_4 channelBusy:timeavg 0.053744564183832
attr source org_car2x_veins_modules_mac_sigChannelBusy
scalar World.node[28].appl.middleware.DenService transmission:count 34
attr source DenmSent
scalar World.node[28].appl.middleware.DenService reception:count 3931
attr source DenmReceived
scalar World.node[28].nic.phy80211p busyTime 0.066788148148144
scalar World.node[28].nic.mac1609_4 ReceivedUnicastPackets 0
scalar World.node[28].nic.mac1609_4 ReceivedBroadcasts 4360
scalar World.node[28].nic.mac1609_4 SentPackets 224
scalar World.node[28].nic.mac1609_4 SentAcknowledgements 0
scalar World.node[28].nic.mac1609_4 RetriesExceeded 0
scalar World.node[28].nic.mac1609_4 SNIRLostPackets 0
scalar World.node[28].nic.mac1609_4 RXTXLostPackets 0
scalar World.node[28].nic.mac1609_4 TotalLostPackets 0
scalar World.node[28].nic.mac1609_4 DroppedPacketsInMac 0
scalar World.node[28].nic.mac1609_4 TooLittleTime 0
scalar World.node[28].nic.mac1609_4 TimesIntoBackoff 224
scalar World.node[28].nic.mac1609_4 SlotsBackoff 1385
scalar World.node[28].nic.mac1609_4 NumInternalContention 0
scalar World.node[28].nic.mac1609_4 totalBusyTime 0.949104
scalar World.node[28].nic.mac1609_4 retriesExceeded:count 0
attr source org_car2x_veins_modules_mac_sigRetriesExceeded
scalar World.node[28].nic.mac1609_4 sentAcks:count 0
attr source org_car2x_veins_modules_mac_sigSentAck
scalar World.node[28].nic.mac1609_4 sentPackets:count 224
attr source org_car2x_veins_modules_mac_sigSentPacket
scalar World.node[28].nic.mac1609_4 collisions:count 0
attr source org_car2x_veins_modules_mac_sigCollision
scalar World.node[28].nic.mac1609_4 channelBusy:timeavg 0.070303999999996
attr source org_car2x_veins_modules_mac_sigChannelBusy
scalar World.node[21].appl.middleware.DenService transmission:count 80
attr source DenmSent
scalar World.node[21].appl.middleware.DenService reception:count 8161
attr source DenmReceived
scalar World.node[21].nic.phy80211p busyTime 0.064008211920524
scalar World.node[21].nic.mac1609_4 ReceivedUnicastPackets 0
scalar World.node[21].nic.mac1609_4 ReceivedBroadcasts 9304
scalar World.node[21].nic.mac1609_4 SentPackets 502
scalar World.node[21].nic.mac1609_4 SentAcknowledgements 0
scalar World.node[21].nic.mac1609_4 RetriesExceeded 0
scalar World.node[21].nic.mac1609_4 SNIRLostPackets 0
scalar World.node[21].nic.mac1609_4 RXTXLostPackets 0
scalar World.node[21].nic.mac1609_4 TotalLostPackets 0
scalar World.node[21].nic.mac1609_4 DroppedPacketsInMac 0
scalar World.node[21].nic.mac1609_4 TooLittleTime 0
scalar World.node[21].nic.mac1609_4 TimesIntoBackoff 502
scalar World.node[21].nic.mac1609_4 SlotsBackoff 2388
scalar World.node[21].nic.mac1609_4 NumInternalContention 0
scalar World.node[21].nic.mac1609_4 totalBusyTime 2.037894
scalar World.node[21].nic.mac1609_4 retriesExceeded:count 0
attr source org_car2x_veins_modules_mac_sigRetriesExceeded
scalar World.node[21].nic.mac1609_4 sentAcks:count 0
attr source org_car2x_veins_modules_mac_sigSentAck
scalar World.node[21].nic.mac1609_4 sentPackets:count 502
attr source org_car2x_veins_modules_mac_sigSentPacket
scalar World.node[21].nic.mac1609_4 collisions:count 0
attr source org_car2x_veins_modules_mac_sigCollision
scalar World.node[21].nic.mac1609_4 channelBusy:timeavg 0.067485928016351
attr source org_car2x_veins_modules_mac_sigChannelBusy
scalar World.node[32].appl.middleware.DenService transmission:count 0
attr source DenmSent
scalar World.node[32].appl.middleware.DenService reception:count 2804
attr source DenmReceived
scalar World.node[32].nic.phy80211p busyTime 0.065421666666663
scalar World.node[32].nic.mac1609_4 ReceivedUnicastPackets 0
scalar World.node[32].nic.mac1609_4 ReceivedBroadcasts 3056
scalar World.node[32].nic.mac1609_4 SentPackets 159
scalar World.node[32].nic.mac1609_4 SentAcknowledgements 0
scalar World.node[32].nic.mac1609_4 RetriesExceeded 0
scalar World.node[32].nic.mac1609_4 SNIRLostPackets 0
scalar World.node[32].nic.mac1609_4 RXTXLostPackets 0
scalar World.node[32].nic.mac1609_4 TotalLostPackets 0
scalar World.node[32].nic.mac1609_4 DroppedPacketsInMac 0
scalar World.node[32].nic.mac1609_4 TooLittleTime 0
scalar World.node[32].nic.mac1609_4 TimesIntoBackoff 159
scalar World.node[32].nic.mac1609_4 SlotsBackoff 1208
scalar World.node[32].nic.mac1609_4 NumInternalContention 0
scalar World.node[32].nic.mac1609_4 totalBusyTime 0.662575
scalar World.node[32].nic.mac1609_4 retriesExceeded:count 0
attr source org_car2x_veins_modules_mac_sigRetriesExceeded
scalar World.node[32].nic.mac1609_4 sentAcks:count 0
attr source org_car2x_veins_modules_mac_sigSentAck
scalar World.node[32].nic.mac1609_4 sentPackets:count 159
attr source org_car2x_veins_modules_mac_sigSentPacket
scalar World.node[32].nic.mac1609_4 collisions:count 0
attr source org_car2x_veins_modules_mac_sigCollision
scalar World.node[32].nic.mac1609_4 channelBusy:timeavg 0.069018229166663
attr source org_car2x_veins_modules_mac_sigChannelBusy
scalar World.node[18].appl.middleware.DenService transmission:count 0
attr source DenmSent
scalar World.node[18].appl.middleware.DenService reception:count 9775
attr source DenmReceived
scalar World.node[18].nic.phy80211p busyTime 0.05217298823529
scalar World.node[18].nic.mac1609_4 ReceivedUnicastPackets 0
scalar World.node[18].nic.mac1609_4 ReceivedBroadcasts 10732
scalar World.node[18].nic.mac1609_4 SentPackets 707
scalar World.node[18].nic.mac1609_4 SentAcknowledgements 0
scalar World.node[18].nic.mac1609_4 RetriesExceeded 0
scalar World.node[18].nic.mac1609_4 SNIRLostPackets 0
scalar World.node[18].nic.mac1609_4 RXTXLostPackets 0
scalar World.node[18].nic.mac1609_4 TotalLostPackets 0
scalar World.node[18].nic.mac1609_4 DroppedPacketsInMac 0
scalar World.node[18].nic.mac1609_4 TooLittleTime 0
scalar World.node[18].nic.mac1609_4 TimesIntoBackoff 707
scalar World.node[18].nic.mac1609_4 SlotsBackoff 5294
scalar World.node[18].nic.mac1609_4 NumInternalContention 0
scalar World.node[18].nic.mac1609_4 totalBusyTime 2.370851
scalar World.node[18].nic.mac1609_4 retriesExceeded:count 0
attr source org_car2x_veins_modules_mac_sigRetriesExceeded
scalar World.node[18].nic.mac1609_4 sentAcks:count 0
attr source org_car2x_veins_modules_mac_sigSentAck
scalar World.node[18].nic.mac1609_4 sentPackets:count 707
attr source org_car2x_veins_modules_mac_sigSentPacket
scalar World.node[18].nic.mac1609_4 collisions:count 0
attr source org_car2x_veins_modules_mac_sigCollision
scalar World.node[18].nic.mac1609_4 channelBusy:timeavg 0.055789055961642
attr source org_car2x_veins_modules_mac_sigChannelBusy
scalar World.node[7].appl.middleware.DenService transmission:count 663
attr source DenmSent
scalar World.node[7].appl.middleware.DenService reception:count 16091
attr source DenmReceived
scalar World.node[7].nic.phy80211p busyTime 0.052251413612563
scalar World.node[7].nic.mac1609_4 ReceivedUnicastPackets 0
scalar World.node[7].nic.mac1609_4 ReceivedBroadcasts 19153
scalar World.node[7].nic.mac1609_4 SentPackets 1272
scalar World.node[7].nic.mac1609_4 SentAcknowledgements 0
scalar World.node[7].nic.mac1609_4 RetriesExceeded 0
scalar World.node[7].nic.mac1609_4 SNIRLostPackets 0
scalar World.node[7].nic.mac1609_4 RXTXLostPackets 0
scalar World.node[7].nic.mac1609_4 TotalLostPackets 0
scalar World.node[7].nic.mac1609_4 DroppedPacketsInMac 0
scalar World.node[7].nic.mac1609_4 TooLittleTime 0
scalar World.node[7].nic.mac1609_4 TimesIntoBackoff 1272
scalar World.node[7].nic.mac1609_4 SlotsBackoff 5001
scalar World.node[7].nic.mac1609_4 NumInternalContention 0
scalar World.node[7].nic.mac1609_4 totalBusyTime 4.251192
scalar World.node[7].nic.mac1609_4 retriesExceeded:count 0
attr source org_car2x_veins_modules_mac_sigRetriesExceeded
scalar World.node[7].nic.mac1609_4 sentAcks:count 0
attr source org_car2x_veins_modules_mac_sigSentAck
scalar World.node[7].nic.mac1609_4 sentPackets:count 1272
attr source org_car2x_veins_modules_mac_sigSentPacket
scalar World.node[7].nic.mac1609_4 collisions:count 0
attr source org_car2x_veins_modules_mac_sigCollision
scalar World.node[7].nic.mac1609_4 channelBusy:timeavg 0.055645074277478
attr source org_car2x_veins_modules_mac_sigChannelBusy
scalar World.node[25].appl.middleware.DenService transmission:count 150
attr source DenmSent
scalar World.node[25].appl.middleware.DenService reception:count 10909
attr source DenmReceived
scalar World.node[25].nic.phy80211p busyTime 0.067671601049864
scalar World.node[25].nic.mac1609_4 ReceivedUnicastPackets 0
scalar World.node[25].nic.mac1609_4 ReceivedBroadcasts 12445
scalar World.node[25].nic.mac1609_4 SentPackets 634
scalar World.node[25].nic.mac1609_4 SentAcknowledgements 0
scalar World.node[25].nic.mac1609_4 RetriesExceeded 0
scalar World.node[25].nic.mac1609_4 SNIRLostPackets 0
scalar World.node[25].nic.mac1609_4 RXTXLostPackets 0
scalar World.node[25].nic.mac1609_4 TotalLostPackets 0
scalar World.node[25].nic.mac1609_4 DroppedPacketsInMac 0
scalar World.node[25].nic.mac1609_4 TooLittleTime 0
scalar World.node[25].nic.mac1609_4 TimesIntoBackoff 634
scalar World.node[25].nic.mac1609_4 SlotsBackoff 2956
scalar World.node[25].nic.mac1609_4 NumInternalContention 0
scalar World.node[25].nic.mac1609_4 totalBusyTime 2.709058
scalar World.node[25].nic.mac1609_4 retriesExceeded:count 0
attr source org_car2x_veins_modules_mac_sigRetriesExceeded
scalar World.node[25].nic.mac1609_4 sentAcks:count 0
attr source org_car2x_veins_modules_mac_sigSentAck
scalar World.node[25].nic.mac1609_4 sentPackets:count 634
attr source org_car2x_veins_modules_mac_sigSentPacket
scalar World.node[25].nic.mac1609_4 collisions:count 0
attr source org_car2x_veins_modules_mac_sigCollision
scalar World.node[25].nic.mac1609_4 channelBusy:timeavg 0.07110877321388
attr source org_car2x_veins_modules_mac_sigChannelBusy
scalar World.node[22].appl.middleware.DenService transmission:count 0
attr source DenmSent
scalar World.node[22].appl.middleware.DenService reception:count 13182
attr source DenmReceived
scalar World.node[22].nic.phy80211p busyTime 0.066418093126381
scalar World.node[22].nic.mac1609_4 ReceivedUnicastPackets 0
scalar World.node[22].nic.mac1609_4 ReceivedBroadcasts 14486
scalar World.node[22].nic.mac1609_4 SentPackets 751
scalar World.node[22].nic.mac1609_4 SentAcknowledgements 0
scalar World.node[22].nic.mac1609_4 RetriesExceeded 0
scalar World.node[22].nic.mac1609_4 SNIRLostPackets 0
scalar World.node[22].nic.mac1609_4 RXTXLostPackets 0
scalar World.node[22].nic.mac1609_4 TotalLostPackets 0
scalar World.node[22].nic.mac1609_4 DroppedPacketsInMac 0
scalar World.node[22].nic.mac1609_4 TooLittleTime 0
scalar World.node[22].nic.mac1609_4 TimesIntoBackoff 751
scalar World.node[22].nic.mac1609_4 SlotsBackoff 5789
scalar World.node[22].nic.mac1609_4 NumInternalContention 0
scalar World.node[22].nic.mac1609_4 totalBusyTime 3.156823
scalar World.node[22].nic.mac1609_4 retriesExceeded:count 0
attr source org_car2x_veins_modules_mac_sigRetriesExceeded
scalar World.node[22].nic.mac1609_4 sentAcks:count 0
attr source org_car2x_veins_modules_mac_sigSentAck
scalar World.node[22].nic.mac1609_4 sentPackets:count 751
attr source org_car2x_veins_modules_mac_sigSentPacket
scalar World.node[22].nic.mac1609_4 collisions:count 0
attr source org_car2x_veins_modules_mac_sigCollision
scalar World.node[22].nic.mac1609_4 channelBusy:timeavg 0.06999788833851
attr source org_car2x_veins_modules_mac_sigChannelBusy
scalar World.node[4].appl.middleware.DenService transmission:count 664
attr source DenmSent
scalar World.node[4].appl.middleware.DenService reception:count 20407
attr source DenmReceived
scalar World.node[4].nic.phy80211p busyTime 0.050266502564118
scalar World.node[4].nic.mac1609_4 ReceivedUnicastPackets 0
scalar World.node[4].nic.mac1609_4 ReceivedBroadcasts 23611
scalar World.node[4].nic.mac1609_4 SentPackets 1624
scalar World.node[4].nic.mac1609_4 SentAcknowledgements 0
scalar World.node[4].nic.mac1609_4 RetriesExceeded 0
scalar World.node[4].nic.mac1609_4 SNIRLostPackets 0
scalar World.node[4].nic.mac1609_4 RXTXLostPackets 0
scalar World.node[4].nic.mac1609_4 TotalLostPackets 0
scalar World.node[4].nic.mac1609_4 DroppedPacketsInMac 0
scalar World.node[4].nic.mac1609_4 TooLittleTime 0
scalar World.node[4].nic.mac1609_4 TimesIntoBackoff 1645
scalar World.node[4].nic.mac1609_4 SlotsBackoff 6886
scalar World.node[4].nic.mac1609_4 NumInternalContention 0
scalar World.node[4].nic.mac1609_4 totalBusyTime 5.235312
scalar World.node[4].nic.mac1609_4 retriesExceeded:count 0
attr source org_car2x_veins_modules_mac_sigRetriesExceeded
scalar World.node[4].nic.mac1609_4 sentAcks:count 0
attr source org_car2x_veins_modules_mac_sigSentAck
scalar World.node[4].nic.mac1609_4 sentPackets:count 1624
attr source org_car2x_veins_modules_mac_sigSentPacket
scalar World.node[4].nic.mac1609_4 collisions:count 0
attr source org_car2x_veins_modules_mac_sigCollision
scalar World.node[4].nic.mac1609_4 channelBusy:timeavg 0.053697446810574
attr source org_car2x_veins_modules_mac_sigChannelBusy
scalar World.node[12].appl.middleware.DenService transmission:count 712
attr source DenmSent
scalar World.node[12].appl.middleware.DenService reception:count 20427
attr source DenmReceived
scalar World.node[12].nic.phy80211p busyTime 0.059286100861025
scalar World.node[12].nic.mac1609_4 ReceivedUnicastPackets 0
scalar World.node[12].nic.mac1609_4 ReceivedBroadcasts 23163
scalar World.node[12].nic.mac1609_4 SentPackets 1354
scalar World.node[12].nic.mac1609_4 SentAcknowledgements 0
scalar World.node[12].nic.mac1609_4 RetriesExceeded 0
scalar World.node[12].nic.mac1609_4 SNIRLostPackets 69
scalar World.node[12].nic.mac1609_4 RXTXLostPackets 0
scalar World.node[12].nic.mac1609_4 TotalLostPackets 69
scalar World.node[12].nic.mac1609_4 DroppedPacketsInMac 0
scalar World.node[12].nic.mac1609_4 TooLittleTime 0
scalar World.node[12].nic.mac1609_4 TimesIntoBackoff 1354
scalar World.node[12].nic.mac1609_4 SlotsBackoff 5510
scalar World.node[12].nic.mac1609_4 NumInternalContention 0
scalar World.node[12].nic.mac1609_4 totalBusyTime 5.080418
scalar World.node[12].nic.mac1609_4 retriesExceeded:count 0
attr source org_car2x_veins_modules_mac_sigRetriesExceeded
scalar World.node[12].nic.mac1609_4 sentAcks:count 0
attr source org_car2x_veins_modules_mac_sigSentAck
scalar World.node[12].nic.mac1609_4 sentPackets:count 1354
attr source org_car2x_veins_modules_mac_sigSentPacket
scalar World.node[12].nic.mac1609_4 collisions:count 0
attr source org_car2x_veins_modules_mac_sigCollision
scalar World.node[12].nic.mac1609_4 channelBusy:timeavg 0.062489766297684
attr source org_car2x_veins_modules_mac_sigChannelBusy
scalar World.node[13].appl.middleware.DenService transmission:count 640
attr source DenmSent
scalar World.node[13].appl.middleware.DenService reception:count 19391
attr source DenmReceived
scalar World.node[13].nic.phy80211p busyTime 0.061099703103924
scalar World.node[13].nic.mac1609_4 ReceivedUnicastPackets 0
scalar World.node[13].nic.mac1609_4 ReceivedBroadcasts 21873
scalar World.node[13].nic.mac1609_4 SentPackets 1234
scalar World.node[13].nic.mac1609_4 SentAcknowledgements 0
scalar World.node[13].nic.mac1609_4 RetriesExceeded 0
scalar World.node[13].nic.mac1609_4 SNIRLostPackets 0
scalar World.node[13].nic.mac1609_4 RXTXLostPackets 0
scalar World.node[13].nic.mac1609_4 TotalLostPackets 0
scalar World.node[13].nic.mac1609_4 DroppedPacketsInMac 0
scalar World.node[13].nic.mac1609_4 TooLittleTime 0
scalar World.node[13].nic.mac1609_4 TimesIntoBackoff 1234
scalar World.node[13].nic.mac1609_4 SlotsBackoff 4955
scalar World.node[13].nic.mac1609_4 NumInternalContention 0
scalar World.node[13].nic.mac1609_4 totalBusyTime 4.777962
scalar World.node[13].nic.mac1609_4 retriesExceeded:count 0
attr source org_car2x_veins_modules_mac_sigRetriesExceeded
scalar World.node[13].nic.mac1609_4 sentAcks:count 0
attr source org_car2x_veins_modules_mac_sigSentAck
scalar World.node[13].nic.mac1609_4 sentPackets:count 1234
attr source org_car2x_veins_modules_mac_sigSentPacket
scalar World.node[13].nic.mac1609_4 collisions:count 0
attr source org_car2x_veins_modules_mac_sigCollision
scalar World.node[13].nic.mac1609_4 channelBusy:timeavg 0.064481048954699
attr source org_car2x_veins_modules_mac_sigChannelBusy
scalar World.node[5].appl.middleware.DenService transmission:count 0
attr source DenmSent
scalar World.node[5].appl.middleware.DenService reception:count 10649
attr source DenmReceived
scalar World.node[5].nic.phy80211p busyTime 0.024382685990337
scalar World.node[5].nic.mac1609_4 ReceivedUnicastPackets 0
scalar World.node[5].nic.mac1609_4 ReceivedBroadcasts 12084
scalar World.node[5].nic.mac1609_4 SentPackets 1384
scalar World.node[5].nic.mac1609_4 SentAcknowledgements 0
scalar World.node[5].nic.mac1609_4 RetriesExceeded 0
scalar World.node[5].nic.mac1609_4 SNIRLostPackets 0
scalar World.node[5].nic.mac1609_4 RXTXLostPackets 0
scalar World.node[5].nic.mac1609_4 TotalLostPackets 0
scalar World.node[5].nic.mac1609_4 DroppedPacketsInMac 0
scalar World.node[5].nic.mac1609_4 TooLittleTime 0
scalar World.node[5].nic.mac1609_4 TimesIntoBackoff 1392
scalar World.node[5].nic.mac1609_4 SlotsBackoff 10602
scalar World.node[5].nic.mac1609_4 NumInternalContention 0
scalar World.node[5].nic.mac1609_4 totalBusyTime 2.842352
scalar World.node[5].nic.mac1609_4 retriesExceeded:count 0
attr source org_car2x_veins_modules_mac_sigRetriesExceeded
scalar World.node[5].nic.mac1609_4 sentAcks:count 0
attr source org_car2x_veins_modules_mac_sigSentAck
scalar World.node[5].nic.mac1609_4 sentPackets:count 1384
attr source org_car2x_veins_modules_mac_sigSentPacket
scalar World.node[5].nic.mac1609_4 collisions:count 0
attr source org_car2x_veins_modules_mac_sigCollision
scalar World.node[5].nic.mac1609_4 channelBusy:timeavg 0.02746233816425
attr source org_car2x_veins_modules_mac_sigChannelBusy
scalar World.node[23].appl.middleware.DenService transmission:count 160
attr source DenmSent
scalar World.node[23].appl.middleware.DenService reception:count 17039
attr source DenmReceived
scalar World.node[23].nic.phy80211p busyTime 0.068681745200694
scalar World.node[23].nic.mac1609_4 ReceivedUnicastPackets 0
scalar World.node[23].nic.mac1609_4 ReceivedBroadcasts 18993
scalar World.node[23].nic.mac1609_4 SentPackets 954
scalar World.node[23].nic.mac1609_4 SentAcknowledgements 0
scalar World.node[23].nic.mac1609_4 RetriesExceeded 0
scalar World.node[23].nic.mac1609_4 SNIRLostPackets 38
scalar World.node[23].nic.mac1609_4 RXTXLostPackets 0
scalar World.node[23].nic.mac1609_4 TotalLostPackets 38
scalar World.node[23].nic.mac1609_4 DroppedPacketsInMac 0
scalar World.node[23].nic.mac1609_4 TooLittleTime 0
scalar World.node[23].nic.mac1609_4 TimesIntoBackoff 954
scalar World.node[23].nic.mac1609_4 SlotsBackoff 4027
scalar World.node[23].nic.mac1609_4 NumInternalContention 0
scalar World.node[23].nic.mac1609_4 totalBusyTime 4.122362
scalar World.node[23].nic.mac1609_4 retriesExceeded:count 0
attr source org_car2x_veins_modules_mac_sigRetriesExceeded
scalar World.node[23].nic.mac1609_4 sentAcks:count 0
attr source org_car2x_veins_modules_mac_sigSentAck
scalar World.node[23].nic.mac1609_4 sentPackets:count 954
attr source org_car2x_veins_modules_mac_sigSentPacket
scalar World.node[23].nic.mac1609_4 collisions:count 0
attr source org_car2x_veins_modules_mac_sigCollision
scalar World.node[23].nic.mac1609_4 channelBusy:timeavg 0.071943490401397
attr source org_car2x_veins_modules_mac_sigChannelBusy
scalar World.node[14].appl.middleware.DenService transmission:count 110
attr source DenmSent
scalar World.node[14].appl.middleware.DenService reception:count 23901
attr source DenmReceived
scalar World.node[14].nic.phy80211p busyTime 0.065811011764739
scalar World.node[14].nic.mac1609_4 ReceivedUnicastPackets 0
scalar World.node[14].nic.mac1609_4 ReceivedBroadcasts 27045
scalar World.node[14].nic.mac1609_4 SentPackets 1416
scalar World.node[14].nic.mac1609_4 SentAcknowledgements 0
scalar World.node[14].nic.mac1609_4 RetriesExceeded 0
scalar World.node[14].nic.mac1609_4 SNIRLostPackets 0
scalar World.node[14].nic.mac1609_4 RXTXLostPackets 0
scalar World.node[14].nic.mac1609_4 TotalLostPackets 0
scalar World.node[14].nic.mac1609_4 DroppedPacketsInMac 0
scalar World.node[14].nic.mac1609_4 TooLittleTime 0
scalar World.node[14].nic.mac1609_4 TimesIntoBackoff 1416
scalar World.node[14].nic.mac1609_4 SlotsBackoff 5950
scalar World.node[14].nic.mac1609_4 NumInternalContention 0
scalar World.node[14].nic.mac1609_4 totalBusyTime 5.882896
scalar World.node[14].nic.mac1609_4 retriesExceeded:count 0
attr source org_car2x_veins_modules_mac_sigRetriesExceeded
scalar World.node[14].nic.mac1609_4 sentAcks:count 0
attr source org_car2x_veins_modules_mac_sigSentAck
scalar World.node[14].nic.mac1609_4 sentPackets:count 1416
attr source org_car2x_veins_modules_mac_sigSentPacket
scalar World.node[14].nic.mac1609_4 collisions:count 0
attr source org_car2x_veins_modules_mac_sigCollision
scalar World.node[14].nic.mac1609_4 channelBusy:timeavg 0.069212721707849
attr source org_car2x_veins_modules_mac_sigChannelBusy
scalar World.node[40].appl.middleware.DenService transmission:count 178
attr source DenmSent
scalar World.node[40].appl.middleware.DenService reception:count 9713
attr source DenmReceived
scalar World.node[40].nic.phy80211p busyTime 0.075260346020755
scalar World.node[40].nic.mac1609_4 ReceivedUnicastPackets 0
scalar World.node[40].nic.mac1609_4 ReceivedBroadcasts 10603
scalar World.node[40].nic.mac1609_4 SentPackets 481
scalar World.node[40].nic.mac1609_4 SentAcknowledgements 0
scalar World.node[40].nic.mac1609_4 RetriesExceeded 0
scalar World.node[40].nic.mac1609_4 SNIRLostPackets 0
scalar World.node[40].nic.mac1609_4 RXTXLostPackets 0
scalar World.node[40].nic.mac1609_4 TotalLostPackets 0
scalar World.node[40].nic.mac1609_4 DroppedPacketsInMac 0
scalar World.node[40].nic.mac1609_4 TooLittleTime 0
scalar World.node[40].nic.mac1609_4 TimesIntoBackoff 481
scalar World.node[40].nic.mac1609_4 SlotsBackoff 2449
scalar World.node[40].nic.mac1609_4 NumInternalContention 0
scalar World.node[40].nic.mac1609_4 totalBusyTime 2.274625
scalar World.node[40].nic.mac1609_4 retriesExceeded:count 0
attr source org_car2x_veins_modules_mac_sigRetriesExceeded
scalar World.node[40].nic.mac1609_4 sentAcks:count 0
attr source org_car2x_veins_modules_mac_sigSentAck
scalar World.node[40].nic.mac1609_4 sentPackets:count 481
attr source org_car2x_veins_modules_mac_sigSentPacket
scalar World.node[40].nic.mac1609_4 collisions:count 0
attr source org_car2x_veins_modules_mac_sigCollision
scalar World.node[40].nic.mac1609_4 channelBusy:timeavg 0.078713421950028
attr source org_car2x_veins_modules_mac_sigChannelBusy
scalar World.node[36].appl.middleware.DenService transmission:count 110
attr source DenmSent
scalar World.node[36].appl.middleware.DenService reception:count 13820
attr source DenmReceived
scalar World.node[36].nic.phy80211p busyTime 0.073497577197145
scalar World.node[36].nic.mac1609_4 ReceivedUnicastPackets 0
scalar World.node[36].nic.mac1609_4 ReceivedBroadcasts 15067
scalar World.node[36].nic.mac1609_4 SentPackets 701
scalar World.node[36].nic.mac1609_4 SentAcknowledgements 0
scalar World.node[36].nic.mac1609_4 RetriesExceeded 0
scalar World.node[36].nic.mac1609_4 SNIRLostPackets 0
scalar World.node[36].nic.mac1609_4 RXTXLostPackets 0
scalar World.node[36].nic.mac1609_4 TotalLostPackets 0
scalar World.node[36].nic.mac1609_4 DroppedPacketsInMac 0
scalar World.node[36].nic.mac1609_4 TooLittleTime 0
scalar World.node[36].nic.mac1609_4 TimesIntoBackoff 701
scalar World.node[36].nic.mac1609_4 SlotsBackoff 3353
scalar World.node[36].nic.mac1609_4 NumInternalContention 0
scalar World.node[36].nic.mac1609_4 totalBusyTime 3.237965
scalar World.node[36].nic.mac1609_4 retriesExceeded:count 0
attr source org_car2x_veins_modules_mac_sigRetriesExceeded
scalar World.node[36].nic.mac1609_4 sentAcks:count 0
attr source org_car2x_veins_modules_mac_sigSentAck
scalar World.node[36].nic.mac1609_4 sentPackets:count 701
attr source org_car2x_veins_modules_mac_sigSentPacket
scalar World.node[36].nic.mac1609_4 collisions:count 0
attr source org_car2x_veins_modules_mac_sigCollision
scalar World.node[36].nic.mac1609_4 channelBusy:timeavg 0.076915629058855
attr source org_car2x_veins_modules_mac_sigChannelBusy
scalar World.node[39].appl.middleware.DenService transmission:count 152
attr source DenmSent
scalar World.node[39].appl.middleware.DenService reception:count 12307
attr source DenmReceived
scalar World.node[39].nic.phy80211p busyTime 0.075601286863266
scalar World.node[39].nic.mac1609_4 ReceivedUnicastPackets 0
scalar World.node[39].nic.mac1609_4 ReceivedBroadcasts 13731
scalar World.node[39].nic.mac1609_4 SentPackets 621
scalar World.node[39].nic.mac1609_4 SentAcknowledgements 0
scalar World.node[39].nic.mac1609_4 RetriesExceeded 0
scalar World.node[39].nic.mac1609_4 SNIRLostPackets 0
scalar World.node[39].nic.mac1609_4 RXTXLostPackets 0
scalar World.node[39].nic.mac1609_4 TotalLostPackets 0
scalar World.node[39].nic.mac1609_4 DroppedPacketsInMac 0
scalar World.node[39].nic.mac1609_4 TooLittleTime 0
scalar World.node[39].nic.mac1609_4 TimesIntoBackoff 621
scalar World.node[39].nic.mac1609_4 SlotsBackoff 2918
scalar World.node[39].nic.mac1609_4 NumInternalContention 0
scalar World.node[39].nic.mac1609_4 totalBusyTime 2.947325
scalar World.node[39].nic.mac1609_4 retriesExceeded:count 0
attr source org_car2x_veins_modules_mac_sigRetriesExceeded
scalar World.node[39].nic.mac1609_4 sentAcks:count 0
attr source org_car2x_veins_modules_mac_sigSentAck
scalar World.node[39].nic.mac1609_4 sentPackets:count 621
attr source org_car2x_veins_modules_mac_sigSentPacket
scalar World.node[39].nic.mac1609_4 collisions:count 0
attr source org_car2x_veins_modules_mac_sigCollision
scalar World.node[39].nic.mac1609_4 channelBusy:timeavg 0.079016756032167
attr source org_car2x_veins_modules_mac_sigChannelBusy
scalar World.node[16].appl.middleware.DenService transmission:count 110
attr source DenmSent
scalar World.node[16].appl.middleware.DenService reception:count 28446
attr source DenmReceived
scalar World.node[16].nic.phy80211p busyTime 0.069616519916192
scalar World.node[16].nic.mac1609_4 ReceivedUnicastPackets 0
scalar World.node[16].nic.mac1609_4 ReceivedBroadcasts 32117
scalar World.node[16].nic.mac1609_4 SentPackets 1589
scalar World.node[16].nic.mac1609_4 SentAcknowledgements 0
scalar World.node[16].nic.mac1609_4 RetriesExceeded 0
scalar World.node[16].nic.mac1609_4 SNIRLostPackets 0
scalar World.node[16].nic.mac1609_4 RXTXLostPackets 0
scalar World.node[16].nic.mac1609_4 TotalLostPackets 0
scalar World.node[16].nic.mac1609_4 DroppedPacketsInMac 0
scalar World.node[16].nic.mac1609_4 TooLittleTime 0
scalar World.node[16].nic.mac1609_4 TimesIntoBackoff 1589
scalar World.node[16].nic.mac1609_4 SlotsBackoff 7188
scalar World.node[16].nic.mac1609_4 NumInternalContention 0
scalar World.node[16].nic.mac1609_4 totalBusyTime 6.967629
scalar World.node[16].nic.mac1609_4 retriesExceeded:count 0
attr source org_car2x_veins_modules_mac_sigRetriesExceeded
scalar World.node[16].nic.mac1609_4 sentAcks:count 0
attr source org_car2x_veins_modules_mac_sigSentAck
scalar World.node[16].nic.mac1609_4 sentPackets:count 1589
attr source org_car2x_veins_modules_mac_sigSentPacket
scalar World.node[16].nic.mac1609_4 collisions:count 0
attr source org_car2x_veins_modules_mac_sigCollision
scalar World.node[16].nic.mac1609_4 channelBusy:timeavg 0.073037934636017
attr source org_car2x_veins_modules_mac_sigChannelBusy
scalar World.node[47].appl.middleware.DenService transmission:count 78
attr source DenmSent
scalar World.node[47].appl.middleware.DenService reception:count 6376
attr source DenmReceived
scalar World.node[47].nic.phy80211p busyTime 0.082405363128485
scalar World.node[47].nic.mac1609_4 ReceivedUnicastPackets 0
scalar World.node[47].nic.mac1609_4 ReceivedBroadcasts 7145
scalar World.node[47].nic.mac1609_4 SentPackets 298
scalar World.node[47].nic.mac1609_4 SentAcknowledgements 0
scalar World.node[47].nic.mac1609_4 RetriesExceeded 0
scalar World.node[47].nic.mac1609_4 SNIRLostPackets 0
scalar World.node[47].nic.mac1609_4 RXTXLostPackets 0
scalar World.node[47].nic.mac1609_4 TotalLostPackets 0
scalar World.node[47].nic.mac1609_4 DroppedPacketsInMac 0
scalar World.node[47].nic.mac1609_4 TooLittleTime 0
scalar World.node[47].nic.mac1609_4 TimesIntoBackoff 298
scalar World.node[47].nic.mac1609_4 SlotsBackoff 1675
scalar World.node[47].nic.mac1609_4 NumInternalContention 0
scalar World.node[47].nic.mac1609_4 totalBusyTime 1.53765
scalar World.node[47].nic.mac1609_4 retriesExceeded:count 0
attr source org_car2x_veins_modules_mac_sigRetriesExceeded
scalar World.node[47].nic.mac1609_4 sentAcks:count 0
attr source org_car2x_veins_modules_mac_sigSentAck
scalar World.node[47].nic.mac1609_4 sentPackets:count 298
attr source org_car2x_veins_modules_mac_sigSentPacket
scalar World.node[47].nic.mac1609_4 collisions:count 0
attr source org_car2x_veins_modules_mac_sigCollision
scalar World.node[47].nic.mac1609_4 channelBusy:timeavg 0.085912750947758
attr source org_car2x_veins_modules_mac_sigChannelBusy
scalar World.node[37].appl.middleware.DenService transmission:count 180
attr source DenmSent
scalar World.node[37].appl.middleware.DenService reception:count 16095
attr source DenmReceived
scalar World.node[37].nic.phy80211p busyTime 0.07210519685039
scalar World.node[37].nic.mac1609_4 ReceivedUnicastPackets 0
scalar World.node[37].nic.mac1609_4 ReceivedBroadcasts 17814
scalar World.node[37].nic.mac1609_4 SentPackets 846
scalar World.node[37].nic.mac1609_4 SentAcknowledgements 0
scalar World.node[37].nic.mac1609_4 RetriesExceeded 0
scalar World.node[37].nic.mac1609_4 SNIRLostPackets 0
scalar World.node[37].nic.mac1609_4 RXTXLostPackets 0
scalar World.node[37].nic.mac1609_4 TotalLostPackets 0
scalar World.node[37].nic.mac1609_4 DroppedPacketsInMac 0
scalar World.node[37].nic.mac1609_4 TooLittleTime 0
scalar World.node[37].nic.mac1609_4 TimesIntoBackoff 846
scalar World.node[37].nic.mac1609_4 SlotsBackoff 3647
scalar World.node[37].nic.mac1609_4 NumInternalContention 0
scalar World.node[37].nic.mac1609_4 totalBusyTime 3.836406
scalar World.node[37].nic.mac1609_4 retriesExceeded:count 0
attr source org_car2x_veins_modules_mac_sigRetriesExceeded
scalar World.node[37].nic.mac1609_4 sentAcks:count 0
attr source org_car2x_veins_modules_mac_sigSentAck
scalar World.node[37].nic.mac1609_4 sentPackets:count 846
attr source org_car2x_veins_modules_mac_sigSentPacket
scalar World.node[37].nic.mac1609_4 collisions:count 0
attr source org_car2x_veins_modules_mac_sigCollision
scalar World.node[37].nic.mac1609_4 channelBusy:timeavg 0.075519803149603
attr source org_car2x_veins_modules_mac_sigChannelBusy
scalar World.node[44].appl.middleware.DenService transmission:count 0
attr source DenmSent
scalar World.node[44].appl.middleware.DenService reception:count 10982
attr source DenmReceived
scalar World.node[44].nic.phy80211p busyTime 0.078753993610217
scalar World.node[44].nic.mac1609_4 ReceivedUnicastPackets 0
scalar World.node[44].nic.mac1609_4 ReceivedBroadcasts 11976
scalar World.node[44].nic.mac1609_4 SentPackets 521
scalar World.node[44].nic.mac1609_4 SentAcknowledgements 0
scalar World.node[44].nic.mac1609_4 RetriesExceeded 0
scalar World.node[44].nic.mac1609_4 SNIRLostPackets 0
scalar World.node[44].nic.mac1609_4 RXTXLostPackets 0
scalar World.node[44].nic.mac1609_4 TotalLostPackets 0
scalar World.node[44].nic.mac1609_4 DroppedPacketsInMac 0
scalar World.node[44].nic.mac1609_4 TooLittleTime 0
scalar World.node[44].nic.mac1609_4 TimesIntoBackoff 521
scalar World.node[44].nic.mac1609_4 SlotsBackoff 3986
scalar World.node[44].nic.mac1609_4 NumInternalContention 0
scalar World.node[44].nic.mac1609_4 totalBusyTime 2.578033
scalar World.node[44].nic.mac1609_4 retriesExceeded:count 0
attr source org_car2x_veins_modules_mac_sigRetriesExceeded
scalar World.node[44].nic.mac1609_4 sentAcks:count 0
attr source org_car2x_veins_modules_mac_sigSentAck
scalar World.node[44].nic.mac1609_4 sentPackets:count 521
attr source org_car2x_veins_modules_mac_sigSentPacket
scalar World.node[44].nic.mac1609_4 collisions:count 0
attr source org_car2x_veins_modules_mac_sigCollision
scalar World.node[44].nic.mac1609_4 channelBusy:timeavg 0.082365271565489
attr source org_car2x_veins_modules_mac_sigChannelBusy
scalar World.node[43].appl.middleware.DenService transmission:count 330
attr source DenmSent
scalar World.node[43].appl.middleware.DenService reception:count 14988
attr source DenmReceived
scalar World.node[43].nic.phy80211p busyTime 0.079205382830622
scalar World.node[43].nic.mac1609_4 ReceivedUnicastPackets 0
scalar World.node[43].nic.mac1609_4 ReceivedBroadcasts 16545
scalar World.node[43].nic.mac1609_4 SentPackets 718
scalar World.node[43].nic.mac1609_4 SentAcknowledgements 0
scalar World.node[43].nic.mac1609_4 RetriesExceeded 0
scalar World.node[43].nic.mac1609_4 SNIRLostPackets 0
scalar World.node[43].nic.mac1609_4 RXTXLostPackets 0
scalar World.node[43].nic.mac1609_4 TotalLostPackets 0
scalar World.node[43].nic.mac1609_4 DroppedPacketsInMac 0
scalar World.node[43].nic.mac1609_4 TooLittleTime 0
scalar World.node[43].nic.mac1609_4 TimesIntoBackoff 718
scalar World.node[43].nic.mac1609_4 SlotsBackoff 3133
scalar World.node[43].nic.mac1609_4 NumInternalContention 0
scalar World.node[43].nic.mac1609_4 totalBusyTime 3.560686
scalar World.node[43].nic.mac1609_4 retriesExceeded:count 0
attr source org_car2x_veins_modules_mac_sigRetriesExceeded
scalar World.node[43].nic.mac1609_4 sentAcks:count 0
attr source org_car2x_veins_modules_mac_sigSentAck
scalar World.node[43].nic.mac1609_4 sentPackets:count 718
attr source org_car2x_veins_modules_mac_sigSentPacket
scalar World.node[43].nic.mac1609_4 collisions:count 0
attr source org_car2x_veins_modules_mac_sigCollision
scalar World.node[43].nic.mac1609_4 channelBusy:timeavg 0.082618778441017
attr source org_car2x_veins_modules_mac_sigChannelBusy
scalar World.node[29].appl.middleware.DenService transmission:count 190
attr source DenmSent
scalar World.node[29].appl.middleware.DenService reception:count 25691
attr source DenmReceived
scalar World.node[29].nic.phy80211p busyTime 0.074244141414182
scalar World.node[29].nic.mac1609_4 ReceivedUnicastPackets 0
scalar World.node[29].nic.mac1609_4 ReceivedBroadcasts 28492
scalar World.node[29].nic.mac1609_4 SentPackets 1319
scalar World.node[29].nic.mac1609_4 SentAcknowledgements 0
scalar World.node[29].nic.mac1609_4 RetriesExceeded 0
scalar World.node[29].nic.mac1609_4 SNIRLostPackets 30
scalar World.node[29].nic.mac1609_4 RXTXLostPackets 0
scalar World.node[29].nic.mac1609_4 TotalLostPackets 30
scalar World.node[29].nic.mac1609_4 DroppedPacketsInMac 0
scalar World.node[29].nic.mac1609_4 TooLittleTime 0
scalar World.node[29].nic.mac1609_4 TimesIntoBackoff 1319
scalar World.node[29].nic.mac1609_4 SlotsBackoff 5772
scalar World.node[29].nic.mac1609_4 NumInternalContention 0
scalar World.node[29].nic.mac1609_4 totalBusyTime 6.142735
scalar World.node[29].nic.mac1609_4 retriesExceeded:count 0
attr source org_car2x_veins_modules_mac_sigRetriesExceeded
scalar World.node[29].nic.mac1609_4 sentAcks:count 0
attr source org_car2x_veins_modules_mac_sigSentAck
scalar World.node[29].nic.mac1609_4 sentPackets:count 1319
attr source org_car2x_veins_modules_mac_sigSentPacket
scalar World.node[29].nic.mac1609_4 collisions:count 0
attr source org_car2x_veins_modules_mac_sigCollision
scalar World.node[29].nic.mac1609_4 channelBusy:timeavg 0.077559785353578
attr source org_car2x_veins_modules_mac_sigChannelBusy
scalar World.node[15].appl.middleware.DenService transmission:count 998
attr source DenmSent
scalar World.node[15].appl.middleware.DenService reception:count 32504
attr source DenmReceived
scalar World.node[15].nic.phy80211p busyTime 0.069585732484136
scalar World.node[15].nic.mac1609_4 ReceivedUnicastPackets 0
scalar World.node[15].nic.mac1609_4 ReceivedBroadcasts 36967
scalar World.node[15].nic.mac1609_4 SentPackets 1831
scalar World.node[15].nic.mac1609_4 SentAcknowledgements 0
scalar World.node[15].nic.mac1609_4 RetriesExceeded 0
scalar World.node[15].nic.mac1609_4 SNIRLostPackets 0
scalar World.node[15].nic.mac1609_4 RXTXLostPackets 0
scalar World.node[15].nic.mac1609_4 TotalLostPackets 0
scalar World.node[15].nic.mac1609_4 DroppedPacketsInMac 0
scalar World.node[15].nic.mac1609_4 TooLittleTime 0
scalar World.node[15].nic.mac1609_4 TimesIntoBackoff 1831
scalar World.node[15].nic.mac1609_4 SlotsBackoff 7024
scalar World.node[15].nic.mac1609_4 NumInternalContention 0
scalar World.node[15].nic.mac1609_4 totalBusyTime 8.019423
scalar World.node[15].nic.mac1609_4 retriesExceeded:count 0
attr source org_car2x_veins_modules_mac_sigRetriesExceeded
scalar World.node[15].nic.mac1609_4 sentAcks:count 0
attr source org_car2x_veins_modules_mac_sigSentAck
scalar World.node[15].nic.mac1609_4 sentPackets:count 1831
attr source org_car2x_veins_modules_mac_sigSentPacket
scalar World.node[15].nic.mac1609_4 collisions:count 0
attr source org_car2x_veins_modules_mac_sigCollision
scalar World.node[15].nic.mac1609_4 channelBusy:timeavg 0.072970181983682
attr source org_car2x_veins_modules_mac_sigChannelBusy
scalar World.node[42].appl.middleware.DenService transmission:count 110
attr source DenmSent
scalar World.node[42].appl.middleware.DenService reception:count 16694
attr source DenmReceived
scalar World.node[42].nic.phy80211p busyTime 0.078360325203248
scalar World.node[42].nic.mac1609_4 ReceivedUnicastPackets 0
scalar World.node[42].nic.mac1609_4 ReceivedBroadcasts 18704
scalar World.node[42].nic.mac1609_4 SentPackets 819
scalar World.node[42].nic.mac1609_4 SentAcknowledgements 0
scalar World.node[42].nic.mac1609_4 RetriesExceeded 0
scalar World.node[42].nic.mac1609_4 SNIRLostPackets 0
scalar World.node[42].nic.mac1609_4 RXTXLostPackets 0
scalar World.node[42].nic.mac1609_4 TotalLostPackets 0
scalar World.node[42].nic.mac1609_4 DroppedPacketsInMac 0
scalar World.node[42].nic.mac1609_4 TooLittleTime 0
scalar World.node[42].nic.mac1609_4 TimesIntoBackoff 819
scalar World.node[42].nic.mac1609_4 SlotsBackoff 3621
scalar World.node[42].nic.mac1609_4 NumInternalContention 0
scalar World.node[42].nic.mac1609_4 totalBusyTime 4.024091
scalar World.node[42].nic.mac1609_4 retriesExceeded:count 0
attr source org_car2x_veins_modules_mac_sigRetriesExceeded
scalar World.node[42].nic.mac1609_4 sentAcks:count 0
attr source org_car2x_veins_modules_mac_sigSentAck
scalar World.node[42].nic.mac1609_4 sentPackets:count 819
attr source org_car2x_veins_modules_mac_sigSentPacket
scalar World.node[42].nic.mac1609_4 collisions:count 0
attr source org_car2x_veins_modules_mac_sigCollision
scalar World.node[42].nic.mac1609_4 channelBusy:timeavg 0.081794244106624
attr source org_car2x_veins_modules_mac_sigChannelBusy
scalar World.node[49].appl.middleware.DenService transmission:count 180
attr source DenmSent
scalar World.node[49].appl.middleware.DenService reception:count 9648
attr source DenmReceived
scalar World.node[49].nic.phy80211p busyTime 0.079978647686826
scalar World.node[49].nic.mac1609_4 ReceivedUnicastPackets 0
scalar World.node[49].nic.mac1609_4 ReceivedBroadcasts 10868
scalar World.node[49].nic.mac1609_4 SentPackets 468
scalar World.node[49].nic.mac1609_4 SentAcknowledgements 0
scalar World.node[49].nic.mac1609_4 RetriesExceeded 0
scalar World.node[49].nic.mac1609_4 SNIRLostPackets 0
scalar World.node[49].nic.mac1609_4 RXTXLostPackets 0
scalar World.node[49].nic.mac1609_4 TotalLostPackets 0
scalar World.node[49].nic.mac1609_4 DroppedPacketsInMac 0
scalar World.node[49].nic.mac1609_4 TooLittleTime 0
scalar World.node[49].nic.mac1609_4 TimesIntoBackoff 468
scalar World.node[49].nic.mac1609_4 SlotsBackoff 2176
scalar World.node[49].nic.mac1609_4 NumInternalContention 0
scalar World.node[49].nic.mac1609_4 totalBusyTime 2.344124
scalar World.node[49].nic.mac1609_4 retriesExceeded:count 0
attr source org_car2x_veins_modules_mac_sigRetriesExceeded
scalar World.node[49].nic.mac1609_4 sentAcks:count 0
attr source org_car2x_veins_modules_mac_sigSentAck
scalar World.node[49].nic.mac1609_4 sentPackets:count 468
attr source org_car2x_veins_modules_mac_sigSentPacket
scalar World.node[49].nic.mac1609_4 collisions:count 0
attr source org_car2x_veins_modules_mac_sigCollision
scalar World.node[49].nic.mac1609_4 channelBusy:timeavg 0.083427608479531
attr source org_car2x_veins_modules_mac_sigChannelBusy
scalar World.node[53].appl.middleware.DenService transmission:count 120
attr source DenmSent
scalar World.node[53].appl.middleware.DenService reception:count 10041
attr source DenmReceived
scalar World.node[53].nic.phy80211p busyTime 0.07725986928104
scalar World.node[53].nic.mac1609_4 ReceivedUnicastPackets 0
scalar World.node[53].nic.mac1609_4 ReceivedBroadcasts 11415
scalar World.node[53].nic.mac1609_4 SentPackets 509
scalar World.node[53].nic.mac1609_4 SentAcknowledgements 0
scalar World.node[53].nic.mac1609_4 RetriesExceeded 0
scalar World.node[53].nic.mac1609_4 SNIRLostPackets 0
scalar World.node[53].nic.mac1609_4 RXTXLostPackets 0
scalar World.node[53].nic.mac1609_4 TotalLostPackets 0
scalar World.node[53].nic.mac1609_4 DroppedPacketsInMac 0
scalar World.node[53].nic.mac1609_4 TooLittleTime 0
scalar World.node[53].nic.mac1609_4 TimesIntoBackoff 509
scalar World.node[53].nic.mac1609_4 SlotsBackoff 2501
scalar World.node[53].nic.mac1609_4 NumInternalContention 0
scalar World.node[53].nic.mac1609_4 totalBusyTime 2.469797
scalar World.node[53].nic.mac1609_4 retriesExceeded:count 0
attr source org_car2x_veins_modules_mac_sigRetriesExceeded
scalar World.node[53].nic.mac1609_4 sentAcks:count 0
attr source org_car2x_veins_modules_mac_sigSentAck
scalar World.node[53].nic.mac1609_4 sentPackets:count 509
attr source org_car2x_veins_modules_mac_sigSentPacket
scalar World.node[53].nic.mac1609_4 collisions:count 0
attr source org_car2x_veins_modules_mac_sigCollision
scalar World.node[53].nic.mac1609_4 channelBusy:timeavg 0.080718625699242
attr source org_car2x_veins_modules_mac_sigChannelBusy
scalar World.node[26].appl.middleware.DenService transmission:count 180
attr source DenmSent
scalar World.node[26].appl.middleware.DenService reception:count 32181
attr source DenmReceived
scalar World.node[26].nic.phy80211p busyTime 0.073588968254028
scalar World.node[26].nic.mac1609_4 ReceivedUnicastPackets 0
scalar World.node[26].nic.mac1609_4 ReceivedBroadcasts 35857
scalar World.node[26].nic.mac1609_4 SentPackets 1679
scalar World.node[26].nic.mac1609_4 SentAcknowledgements 0
scalar World.node[26].nic.mac1609_4 RetriesExceeded 0
scalar World.node[26].nic.mac1609_4 SNIRLostPackets 46
scalar World.node[26].nic.mac1609_4 RXTXLostPackets 0
scalar World.node[26].nic.mac1609_4 TotalLostPackets 46
scalar World.node[26].nic.mac1609_4 DroppedPacketsInMac 0
scalar World.node[26].nic.mac1609_4 TooLittleTime 0
scalar World.node[26].nic.mac1609_4 TimesIntoBackoff 1679
scalar World.node[26].nic.mac1609_4 SlotsBackoff 7075
scalar World.node[26].nic.mac1609_4 NumInternalContention 0
scalar World.node[26].nic.mac1609_4 totalBusyTime 7.750671
scalar World.node[26].nic.mac1609_4 retriesExceeded:count 0
attr source org_car2x_veins_modules_mac_sigRetriesExceeded
scalar World.node[26].nic.mac1609_4 sentAcks:count 0
attr source org_car2x_veins_modules_mac_sigSentAck
scalar World.node[26].nic.mac1609_4 sentPackets:count 1679
attr source org_car2x_veins_modules_mac_sigSentPacket
scalar World.node[26].nic.mac1609_4 collisions:count 0
attr source org_car2x_veins_modules_mac_sigCollision
scalar World.node[26].nic.mac1609_4 channelBusy:timeavg 0.076891577381014
attr source org_car2x_veins_modules_mac_sigChannelBusy
scalar World.node[45].appl.middleware.DenService transmission:count 298
attr source DenmSent
scalar World.node[45].appl.middleware.DenService reception:count 17732
attr source DenmReceived
scalar World.node[45].nic.phy80211p busyTime 0.077750018903591
scalar World.node[45].nic.mac1609_4 ReceivedUnicastPackets 0
scalar World.node[45].nic.mac1609_4 ReceivedBroadcasts 19906
scalar World.node[45].nic.mac1609_4 SentPackets 881
scalar World.node[45].nic.mac1609_4 SentAcknowledgements 0
scalar World.node[45].nic.mac1609_4 RetriesExceeded 0
scalar World.node[45].nic.mac1609_4 SNIRLostPackets 0
scalar World.node[45].nic.mac1609_4 RXTXLostPackets 0
scalar World.node[45].nic.mac1609_4 TotalLostPackets 0
scalar World.node[45].nic.mac1609_4 DroppedPacketsInMac 0
scalar World.node[45].nic.mac1609_4 TooLittleTime 0
scalar World.node[45].nic.mac1609_4 TimesIntoBackoff 881
scalar World.node[45].nic.mac1609_4 SlotsBackoff 3844
scalar World.node[45].nic.mac1609_4 NumInternalContention 0
scalar World.node[45].nic.mac1609_4 totalBusyTime 4.293529
scalar World.node[45].nic.mac1609_4 retriesExceeded:count 0
attr source org_car2x_veins_modules_mac_sigRetriesExceeded
scalar World.node[45].nic.mac1609_4 sentAcks:count 0
attr source org_car2x_veins_modules_mac_sigSentAck
scalar World.node[45].nic.mac1609_4 sentPackets:count 881
attr source org_car2x_veins_modules_mac_sigSentPacket
scalar World.node[45].nic.mac1609_4 collisions:count 0
attr source org_car2x_veins_modules_mac_sigCollision
scalar World.node[45].nic.mac1609_4 channelBusy:timeavg 0.081166726219325
attr source org_car2x_veins_modules_mac_sigChannelBusy
scalar World.node[24].appl.middleware.DenService transmission:count 999
attr source DenmSent
scalar World.node[24].appl.middleware.DenService reception:count 33776
attr source DenmReceived
scalar World.node[24].nic.phy80211p busyTime 0.072320072727336
scalar World.node[24].nic.mac1609_4 ReceivedUnicastPackets 0
scalar World.node[24].nic.mac1609_4 ReceivedBroadcasts 38470
scalar World.node[24].nic.mac1609_4 SentPackets 1833
scalar World.node[24].nic.mac1609_4 SentAcknowledgements 0
scalar World.node[24].nic.mac1609_4 RetriesExceeded 0
scalar World.node[24].nic.mac1609_4 SNIRLostPackets 0
scalar World.node[24].nic.mac1609_4 RXTXLostPackets 0
scalar World.node[24].nic.mac1609_4 TotalLostPackets 0
scalar World.node[24].nic.mac1609_4 DroppedPacketsInMac 0
scalar World.node[24].nic.mac1609_4 TooLittleTime 0
scalar World.node[24].nic.mac1609_4 TimesIntoBackoff 1832
scalar World.node[24].nic.mac1609_4 SlotsBackoff 7138
scalar World.node[24].nic.mac1609_4 NumInternalContention 0
scalar World.node[24].nic.mac1609_4 totalBusyTime 8.326624
scalar World.node[24].nic.mac1609_4 retriesExceeded:count 0
attr source org_car2x_veins_modules_mac_sigRetriesExceeded
scalar World.node[24].nic.mac1609_4 sentAcks:count 0
attr source org_car2x_veins_modules_mac_sigSentAck
scalar World.node[24].nic.mac1609_4 sentPackets:count 1833
attr source org_car2x_veins_modules_mac_sigSentPacket
scalar World.node[24].nic.mac1609_4 collisions:count 0
attr source org_car2x_veins_modules_mac_sigCollision
scalar World.node[24].nic.mac1609_4 channelBusy:timeavg 0.075698332105082
attr source org_car2x_veins_modules_mac_sigChannelBusy
scalar World.node[17].appl.middleware.DenService transmission:count 0
attr source DenmSent
scalar World.node[17].appl.middleware.DenService reception:count 38706
attr source DenmReceived
scalar World.node[17].nic.phy80211p busyTime 0.070269260450207
scalar World.node[17].nic.mac1609_4 ReceivedUnicastPackets 0
scalar World.node[17].nic.mac1609_4 ReceivedBroadcasts 42402
scalar World.node[17].nic.mac1609_4 SentPackets 2072
scalar World.node[17].nic.mac1609_4 SentAcknowledgements 0
scalar World.node[17].nic.mac1609_4 RetriesExceeded 0
scalar World.node[17].nic.mac1609_4 SNIRLostPackets 0
scalar World.node[17].nic.mac1609_4 RXTXLostPackets 0
scalar World.node[17].nic.mac1609_4 TotalLostPackets 0
scalar World.node[17].nic.mac1609_4 DroppedPacketsInMac 0
scalar World.node[17].nic.mac1609_4 TooLittleTime 0
scalar World.node[17].nic.mac1609_4 TimesIntoBackoff 2072
scalar World.node[17].nic.mac1609_4 SlotsBackoff 15372
scalar World.node[17].nic.mac1609_4 NumInternalContention 0
scalar World.node[17].nic.mac1609_4 totalBusyTime 9.19708
scalar World.node[17].nic.mac1609_4 retriesExceeded:count 0
attr source org_car2x_veins_modules_mac_sigRetriesExceeded
scalar World.node[17].nic.mac1609_4 sentAcks:count 0
attr source org_car2x_veins_modules_mac_sigSentAck
scalar World.node[17].nic.mac1609_4 sentPackets:count 2072
attr source org_car2x_veins_modules_mac_sigSentPacket
scalar World.node[17].nic.mac1609_4 collisions:count 0
attr source org_car2x_veins_modules_mac_sigCollision
scalar World.node[17].nic.mac1609_4 channelBusy:timeavg 0.073931511254056
attr source org_car2x_veins_modules_mac_sigChannelBusy
scalar World.node[27].appl.middleware.DenService transmission:count 880
attr source DenmSent
scalar World.node[27].appl.middleware.DenService reception:count 30843
attr source DenmReceived
scalar World.node[27].nic.phy80211p busyTime 0.069740897803302
scalar World.node[27].nic.mac1609_4 ReceivedUnicastPackets 0
scalar World.node[27].nic.mac1609_4 ReceivedBroadcasts 35306
scalar World.node[27].nic.mac1609_4 SentPackets 1744
scalar World.node[27].nic.mac1609_4 SentAcknowledgements 0
scalar World.node[27].nic.mac1609_4 RetriesExceeded 0
scalar World.node[27].nic.mac1609_4 SNIRLostPackets 0
scalar World.node[27].nic.mac1609_4 RXTXLostPackets 0
scalar World.node[27].nic.mac1609_4 TotalLostPackets 0
scalar World.node[27].nic.mac1609_4 DroppedPacketsInMac 0
scalar World.node[27].nic.mac1609_4 TooLittleTime 0
scalar World.node[27].nic.mac1609_4 TimesIntoBackoff 1744
scalar World.node[27].nic.mac1609_4 SlotsBackoff 6785
scalar World.node[27].nic.mac1609_4 NumInternalContention 0
scalar World.node[27].nic.mac1609_4 totalBusyTime 7.65636
scalar World.node[27].nic.mac1609_4 retriesExceeded:count 0
attr source org_car2x_veins_modules_mac_sigRetriesExceeded
scalar World.node[27].nic.mac1609_4 sentAcks:count 0
attr source org_car2x_veins_modules_mac_sigSentAck
scalar World.node[27].nic.mac1609_4 sentPackets:count 1744
attr source org_car2x_veins_modules_mac_sigSentPacket
scalar World.node[27].nic.mac1609_4 collisions:count 0
attr source org_car2x_veins_modules_mac_sigCollision
scalar World.node[27].nic.mac1609_4 channelBusy:timeavg 0.073126647564526
attr source org_car2x_veins_modules_mac_sigChannelBusy
scalar World.node[38].appl.middleware.DenService transmission:count 0
attr source DenmSent
scalar World.node[38].appl.middleware.DenService reception:count 28497
attr source DenmReceived
scalar World.node[38].nic.phy80211p busyTime 0.07408680459775
scalar World.node[38].nic.mac1609_4 ReceivedUnicastPackets 0
scalar World.node[38].nic.mac1609_4 ReceivedBroadcasts 31258
scalar World.node[38].nic.mac1609_4 SentPackets 1449
scalar World.node[38].nic.mac1609_4 SentAcknowledgements 0
scalar World.node[38].nic.mac1609_4 RetriesExceeded 0
scalar World.node[38].nic.mac1609_4 SNIRLostPackets 0
scalar World.node[38].nic.mac1609_4 RXTXLostPackets 0
scalar World.node[38].nic.mac1609_4 TotalLostPackets 0
scalar World.node[38].nic.mac1609_4 DroppedPacketsInMac 0
scalar World.node[38].nic.mac1609_4 TooLittleTime 0
scalar World.node[38].nic.mac1609_4 TimesIntoBackoff 1449
scalar World.node[38].nic.mac1609_4 SlotsBackoff 10835
scalar World.node[38].nic.mac1609_4 NumInternalContention 0
scalar World.node[38].nic.mac1609_4 totalBusyTime 6.760921
scalar World.node[38].nic.mac1609_4 retriesExceeded:count 0
attr source org_car2x_veins_modules_mac_sigRetriesExceeded
scalar World.node[38].nic.mac1609_4 sentAcks:count 0
attr source org_car2x_veins_modules_mac_sigSentAck
scalar World.node[38].nic.mac1609_4 sentPackets:count 1449
attr source org_car2x_veins_modules_mac_sigSentPacket
scalar World.node[38].nic.mac1609_4 collisions:count 0
attr source org_car2x_veins_modules_mac_sigCollision
scalar World.node[38].nic.mac1609_4 channelBusy:timeavg 0.077711735632235
attr source org_car2x_veins_modules_mac_sigChannelBusy
scalar World.node[31].appl.middleware.DenService transmission:count 200
attr source DenmSent
scalar World.node[31].appl.middleware.DenService reception:count 34405
attr source DenmReceived
scalar World.node[31].nic.phy80211p busyTime 0.07291404411771
scalar World.node[31].nic.mac1609_4 ReceivedUnicastPackets 0
scalar World.node[31].nic.mac1609_4 ReceivedBroadcasts 38293
scalar World.node[31].nic.mac1609_4 SentPackets 1812
scalar World.node[31].nic.mac1609_4 SentAcknowledgements 0
scalar World.node[31].nic.mac1609_4 RetriesExceeded 0
scalar World.node[31].nic.mac1609_4 SNIRLostPackets 79
scalar World.node[31].nic.mac1609_4 RXTXLostPackets 0
scalar World.node[31].nic.mac1609_4 TotalLostPackets 79
scalar World.node[31].nic.mac1609_4 DroppedPacketsInMac 0
scalar World.node[31].nic.mac1609_4 TooLittleTime 0
scalar World.node[31].nic.mac1609_4 TimesIntoBackoff 1830
scalar World.node[31].nic.mac1609_4 SlotsBackoff 8219
scalar World.node[31].nic.mac1609_4 NumInternalContention 0
scalar World.node[31].nic.mac1609_4 totalBusyTime 8.289068
scalar World.node[31].nic.mac1609_4 retriesExceeded:count 0
attr source org_car2x_veins_modules_mac_sigRetriesExceeded
scalar World.node[31].nic.mac1609_4 sentAcks:count 0
attr source org_car2x_veins_modules_mac_sigSentAck
scalar World.node[31].nic.mac1609_4 sentPackets:count 1812
attr source org_car2x_veins_modules_mac_sigSentPacket
scalar World.node[31].nic.mac1609_4 collisions:count 0
attr source org_car2x_veins_modules_mac_sigCollision
scalar World.node[31].nic.mac1609_4 channelBusy:timeavg 0.076186286764761
attr source org_car2x_veins_modules_mac_sigChannelBusy
scalar World.node[56].appl.middleware.DenService transmission:count 0
attr source DenmSent
scalar World.node[56].appl.middleware.DenService reception:count 11295
attr source DenmReceived
scalar World.node[56].nic.phy80211p busyTime 0.069520853333328
scalar World.node[56].nic.mac1609_4 ReceivedUnicastPackets 0
scalar World.node[56].nic.mac1609_4 ReceivedBroadcasts 12533
scalar World.node[56].nic.mac1609_4 SentPackets 624
scalar World.node[56].nic.mac1609_4 SentAcknowledgements 0
scalar World.node[56].nic.mac1609_4 RetriesExceeded 0
scalar World.node[56].nic.mac1609_4 SNIRLostPackets 0
scalar World.node[56].nic.mac1609_4 RXTXLostPackets 0
scalar World.node[56].nic.mac1609_4 TotalLostPackets 0
scalar World.node[56].nic.mac1609_4 DroppedPacketsInMac 0
scalar World.node[56].nic.mac1609_4 TooLittleTime 0
scalar World.node[56].nic.mac1609_4 TimesIntoBackoff 624
scalar World.node[56].nic.mac1609_4 SlotsBackoff 4558
scalar World.node[56].nic.mac1609_4 NumInternalContention 0
scalar World.node[56].nic.mac1609_4 totalBusyTime 2.742616
scalar World.node[56].nic.mac1609_4 retriesExceeded:count 0
attr source org_car2x_veins_modules_mac_sigRetriesExceeded
scalar World.node[56].nic.mac1609_4 sentAcks:count 0
attr source org_car2x_veins_modules_mac_sigSentAck
scalar World.node[56].nic.mac1609_4 sentPackets:count 624
attr source org_car2x_veins_modules_mac_sigSentPacket
scalar World.node[56].nic.mac1609_4 collisions:count 0
attr source org_car2x_veins_modules_mac_sigCollision
scalar World.node[56].nic.mac1609_4 channelBusy:timeavg 0.073136426666662
attr source org_car2x_veins_modules_mac_sigChannelBusy
scalar World.node[33].appl.middleware.DenService transmission:count 0
attr source DenmSent
scalar World.node[33].appl.middleware.DenService reception:count 37427
attr source DenmReceived
scalar World.node[33].nic.phy80211p busyTime 0.073092344827639
scalar World.node[33].nic.mac1609_4 ReceivedUnicastPackets 0
scalar World.node[33].nic.mac1609_4 ReceivedBroadcasts 41062
scalar World.node[33].nic.mac1609_4 SentPackets 1933
scalar World.node[33].nic.mac1609_4 SentAcknowledgements 0
scalar World.node[33].nic.mac1609_4 RetriesExceeded 0
scalar World.node[33].nic.mac1609_4 SNIRLostPackets 8
scalar World.node[33].nic.mac1609_4 RXTXLostPackets 0
scalar World.node[33].nic.mac1609_4 TotalLostPackets 8
scalar World.node[33].nic.mac1609_4 DroppedPacketsInMac 0
scalar World.node[33].nic.mac1609_4 TooLittleTime 0
scalar World.node[33].nic.mac1609_4 TimesIntoBackoff 1933
scalar World.node[33].nic.mac1609_4 SlotsBackoff 14222
scalar World.node[33].nic.mac1609_4 NumInternalContention 0
scalar World.node[33].nic.mac1609_4 totalBusyTime 8.897493
scalar World.node[33].nic.mac1609_4 retriesExceeded:count 0
attr source org_car2x_veins_modules_mac_sigRetriesExceeded
scalar World.node[33].nic.mac1609_4 sentAcks:count 0
attr source org_car2x_veins_modules_mac_sigSentAck
scalar World.node[33].nic.mac1609_4 sentPackets:count 1933
attr source org_car2x_veins_modules_mac_sigSentPacket
scalar World.node[33].nic.mac1609_4 collisions:count 0
attr source org_car2x_veins_modules_mac_sigCollision
scalar World.node[33].nic.mac1609_4 channelBusy:timeavg 0.076702881542792
attr source org_car2x_veins_modules_mac_sigChannelBusy
scalar World.node[66].appl.middleware.DenService transmission:count 10
attr source DenmSent
scalar World.node[66].appl.middleware.DenService reception:count 5007
attr source DenmReceived
scalar World.node[66].nic.phy80211p busyTime 0.073842038216555
scalar World.node[66].nic.mac1609_4 ReceivedUnicastPackets 0
scalar World.node[66].nic.mac1609_4 ReceivedBroadcasts 5555
scalar World.node[66].nic.mac1609_4 SentPackets 261
scalar World.node[66].nic.mac1609_4 SentAcknowledgements 0
scalar World.node[66].nic.mac1609_4 RetriesExceeded 0
scalar World.node[66].nic.mac1609_4 SNIRLostPackets 18
scalar World.node[66].nic.mac1609_4 RXTXLostPackets 0
scalar World.node[66].nic.mac1609_4 TotalLostPackets 18
scalar World.node[66].nic.mac1609_4 DroppedPacketsInMac 0
scalar World.node[66].nic.mac1609_4 TooLittleTime 0
scalar World.node[66].nic.mac1609_4 TimesIntoBackoff 261
scalar World.node[66].nic.mac1609_4 SlotsBackoff 1726
scalar World.node[66].nic.mac1609_4 NumInternalContention 0
scalar World.node[66].nic.mac1609_4 totalBusyTime 1.214269
scalar World.node[66].nic.mac1609_4 retriesExceeded:count 0
attr source org_car2x_veins_modules_mac_sigRetriesExceeded
scalar World.node[66].nic.mac1609_4 sentAcks:count 0
attr source org_car2x_veins_modules_mac_sigSentAck
scalar World.node[66].nic.mac1609_4 sentPackets:count 261
attr source org_car2x_veins_modules_mac_sigSentPacket
scalar World.node[66].nic.mac1609_4 collisions:count 0
attr source org_car2x_veins_modules_mac_sigCollision
scalar World.node[66].nic.mac1609_4 channelBusy:timeavg 0.077341974522287
attr source org_car2x_veins_modules_mac_sigChannelBusy
scalar World.node[65].appl.middleware.DenService transmission:count 0
attr source DenmSent
scalar World.node[65].appl.middleware.DenService reception:count 6763
attr source DenmReceived
scalar World.node[65].nic.phy80211p busyTime 0.07506334928229
scalar World.node[65].nic.mac1609_4 ReceivedUnicastPackets 0
scalar World.node[65].nic.mac1609_4 ReceivedBroadcasts 7525
scalar World.node[65].nic.mac1609_4 SentPackets 348
scalar World.node[65].nic.mac1609_4 SentAcknowledgements 0
scalar World.node[65].nic.mac1609_4 RetriesExceeded 0
scalar World.node[65].nic.mac1609_4 SNIRLostPackets 14
scalar World.node[65].nic.mac1609_4 RXTXLostPackets 0
scalar World.node[65].nic.mac1609_4 TotalLostPackets 14
scalar World.node[65].nic.mac1609_4 DroppedPacketsInMac 0
scalar World.node[65].nic.mac1609_4 TooLittleTime 0
scalar World.node[65].nic.mac1609_4 TimesIntoBackoff 348
scalar World.node[65].nic.mac1609_4 SlotsBackoff 2630
[...]
attr source org_car2x_veins_modules_mac_sigSentPacket
scalar World.node[336].nic.mac1609_4 collisions:count 0
attr source org_car2x_veins_modules_mac_sigCollision
scalar World.node[336].nic.mac1609_4 channelBusy:timeavg 0.061501860465111
attr source org_car2x_veins_modules_mac_sigChannelBusy
scalar World.node[330].appl.middleware.DenService transmission:count 100
attr source DenmSent
scalar World.node[330].appl.middleware.DenService reception:count 15969
attr source DenmReceived
scalar World.node[330].nic.phy80211p busyTime 0.059980301507533
scalar World.node[330].nic.mac1609_4 ReceivedUnicastPackets 0
scalar World.node[330].nic.mac1609_4 ReceivedBroadcasts 17521
scalar World.node[330].nic.mac1609_4 SentPackets 994
scalar World.node[330].nic.mac1609_4 SentAcknowledgements 0
scalar World.node[330].nic.mac1609_4 RetriesExceeded 0
scalar World.node[330].nic.mac1609_4 SNIRLostPackets 1
scalar World.node[330].nic.mac1609_4 RXTXLostPackets 0
scalar World.node[330].nic.mac1609_4 TotalLostPackets 1
scalar World.node[330].nic.mac1609_4 DroppedPacketsInMac 0
scalar World.node[330].nic.mac1609_4 TooLittleTime 0
scalar World.node[330].nic.mac1609_4 TimesIntoBackoff 994
scalar World.node[330].nic.mac1609_4 SlotsBackoff 4064
scalar World.node[330].nic.mac1609_4 NumInternalContention 0
scalar World.node[330].nic.mac1609_4 totalBusyTime 3.784538
scalar World.node[330].nic.mac1609_4 retriesExceeded:count 0
attr source org_car2x_veins_modules_mac_sigRetriesExceeded
scalar World.node[330].nic.mac1609_4 sentAcks:count 0
attr source org_car2x_veins_modules_mac_sigSentAck
scalar World.node[330].nic.mac1609_4 sentPackets:count 994
attr source org_car2x_veins_modules_mac_sigSentPacket
scalar World.node[330].nic.mac1609_4 collisions:count 0
attr source org_car2x_veins_modules_mac_sigCollision
scalar World.node[330].nic.mac1609_4 channelBusy:timeavg 0.063392596314904
attr source org_car2x_veins_modules_mac_sigChannelBusy
scalar World.node[331].appl.middleware.DenService transmission:count 497
attr source DenmSent
scalar World.node[331].appl.middleware.DenService reception:count 16027
attr source DenmReceived
scalar World.node[331].nic.phy80211p busyTime 0.058813511705681
scalar World.node[331].nic.mac1609_4 ReceivedUnicastPackets 0
scalar World.node[331].nic.mac1609_4 ReceivedBroadcasts 17202
scalar World.node[331].nic.mac1609_4 SentPackets 996
scalar World.node[331].nic.mac1609_4 SentAcknowledgements 0
scalar World.node[331].nic.mac1609_4 RetriesExceeded 0
scalar World.node[331].nic.mac1609_4 SNIRLostPackets 1
scalar World.node[331].nic.mac1609_4 RXTXLostPackets 0
scalar World.node[331].nic.mac1609_4 TotalLostPackets 1
scalar World.node[331].nic.mac1609_4 DroppedPacketsInMac 0
scalar World.node[331].nic.mac1609_4 TooLittleTime 0
scalar World.node[331].nic.mac1609_4 TimesIntoBackoff 996
scalar World.node[331].nic.mac1609_4 SlotsBackoff 4157
scalar World.node[331].nic.mac1609_4 NumInternalContention 0
scalar World.node[331].nic.mac1609_4 totalBusyTime 3.719596
scalar World.node[331].nic.mac1609_4 retriesExceeded:count 0
attr source org_car2x_veins_modules_mac_sigRetriesExceeded
scalar World.node[331].nic.mac1609_4 sentAcks:count 0
attr source org_car2x_veins_modules_mac_sigSentAck
scalar World.node[331].nic.mac1609_4 sentPackets:count 996
attr source org_car2x_veins_modules_mac_sigSentPacket
scalar World.node[331].nic.mac1609_4 collisions:count 0
attr source org_car2x_veins_modules_mac_sigCollision
scalar World.node[331].nic.mac1609_4 channelBusy:timeavg 0.062200602006685
attr source org_car2x_veins_modules_mac_sigChannelBusy
scalar World.node[324].appl.middleware.DenService transmission:count 0
attr source DenmSent
scalar World.node[324].appl.middleware.DenService reception:count 26047
attr source DenmReceived
scalar World.node[324].nic.phy80211p busyTime 0.063935108077395
scalar World.node[324].nic.mac1609_4 ReceivedUnicastPackets 0
scalar World.node[324].nic.mac1609_4 ReceivedBroadcasts 27590
scalar World.node[324].nic.mac1609_4 SentPackets 1464
scalar World.node[324].nic.mac1609_4 SentAcknowledgements 0
scalar World.node[324].nic.mac1609_4 RetriesExceeded 0
scalar World.node[324].nic.mac1609_4 SNIRLostPackets 1
scalar World.node[324].nic.mac1609_4 RXTXLostPackets 0
scalar World.node[324].nic.mac1609_4 TotalLostPackets 1
scalar World.node[324].nic.mac1609_4 DroppedPacketsInMac 0
scalar World.node[324].nic.mac1609_4 TooLittleTime 0
scalar World.node[324].nic.mac1609_4 TimesIntoBackoff 1464
scalar World.node[324].nic.mac1609_4 SlotsBackoff 10883
scalar World.node[324].nic.mac1609_4 NumInternalContention 0
scalar World.node[324].nic.mac1609_4 totalBusyTime 5.938752
scalar World.node[324].nic.mac1609_4 retriesExceeded:count 0
attr source org_car2x_veins_modules_mac_sigRetriesExceeded
scalar World.node[324].nic.mac1609_4 sentAcks:count 0
attr source org_car2x_veins_modules_mac_sigSentAck
scalar World.node[324].nic.mac1609_4 sentPackets:count 1464
attr source org_car2x_veins_modules_mac_sigSentPacket
scalar World.node[324].nic.mac1609_4 collisions:count 0
attr source org_car2x_veins_modules_mac_sigCollision
scalar World.node[324].nic.mac1609_4 channelBusy:timeavg 0.067562593856692
attr source org_car2x_veins_modules_mac_sigChannelBusy
scalar World.node[327].appl.middleware.DenService transmission:count 641
attr source DenmSent
scalar World.node[327].appl.middleware.DenService reception:count 20499
attr source DenmReceived
scalar World.node[327].nic.phy80211p busyTime 0.060918382749337
scalar World.node[327].nic.mac1609_4 ReceivedUnicastPackets 0
scalar World.node[327].nic.mac1609_4 ReceivedBroadcasts 22104
scalar World.node[327].nic.mac1609_4 SentPackets 1236
scalar World.node[327].nic.mac1609_4 SentAcknowledgements 0
scalar World.node[327].nic.mac1609_4 RetriesExceeded 0
scalar World.node[327].nic.mac1609_4 SNIRLostPackets 1
scalar World.node[327].nic.mac1609_4 RXTXLostPackets 0
scalar World.node[327].nic.mac1609_4 TotalLostPackets 1
scalar World.node[327].nic.mac1609_4 DroppedPacketsInMac 0
scalar World.node[327].nic.mac1609_4 TooLittleTime 0
scalar World.node[327].nic.mac1609_4 TimesIntoBackoff 1236
scalar World.node[327].nic.mac1609_4 SlotsBackoff 4977
scalar World.node[327].nic.mac1609_4 NumInternalContention 0
scalar World.node[327].nic.mac1609_4 totalBusyTime 4.77218
scalar World.node[327].nic.mac1609_4 retriesExceeded:count 0
attr source org_car2x_veins_modules_mac_sigRetriesExceeded
scalar World.node[327].nic.mac1609_4 sentAcks:count 0
attr source org_car2x_veins_modules_mac_sigSentAck
scalar World.node[327].nic.mac1609_4 sentPackets:count 1236
attr source org_car2x_veins_modules_mac_sigSentPacket
scalar World.node[327].nic.mac1609_4 collisions:count 0
attr source org_car2x_veins_modules_mac_sigCollision
scalar World.node[327].nic.mac1609_4 channelBusy:timeavg 0.064315094339638
attr source org_car2x_veins_modules_mac_sigChannelBusy
scalar World.node[335].appl.middleware.DenService transmission:count 429
attr source DenmSent
scalar World.node[335].appl.middleware.DenService reception:count 13076
attr source DenmReceived
scalar World.node[335].nic.phy80211p busyTime 0.054876075471693
scalar World.node[335].nic.mac1609_4 ReceivedUnicastPackets 0
scalar World.node[335].nic.mac1609_4 ReceivedBroadcasts 14231
scalar World.node[335].nic.mac1609_4 SentPackets 883
scalar World.node[335].nic.mac1609_4 SentAcknowledgements 0
scalar World.node[335].nic.mac1609_4 RetriesExceeded 0
scalar World.node[335].nic.mac1609_4 SNIRLostPackets 2
scalar World.node[335].nic.mac1609_4 RXTXLostPackets 0
scalar World.node[335].nic.mac1609_4 TotalLostPackets 2
scalar World.node[335].nic.mac1609_4 DroppedPacketsInMac 0
scalar World.node[335].nic.mac1609_4 TooLittleTime 0
scalar World.node[335].nic.mac1609_4 TimesIntoBackoff 883
scalar World.node[335].nic.mac1609_4 SlotsBackoff 3909
scalar World.node[335].nic.mac1609_4 NumInternalContention 0
scalar World.node[335].nic.mac1609_4 totalBusyTime 3.088219
scalar World.node[335].nic.mac1609_4 retriesExceeded:count 0
attr source org_car2x_veins_modules_mac_sigRetriesExceeded
scalar World.node[335].nic.mac1609_4 sentAcks:count 0
attr source org_car2x_veins_modules_mac_sigSentAck
scalar World.node[335].nic.mac1609_4 sentPackets:count 883
attr source org_car2x_veins_modules_mac_sigSentPacket
scalar World.node[335].nic.mac1609_4 collisions:count 0
attr source org_car2x_veins_modules_mac_sigCollision
scalar World.node[335].nic.mac1609_4 channelBusy:timeavg 0.058268283018864
attr source org_car2x_veins_modules_mac_sigChannelBusy
scalar World.node[339].appl.middleware.DenService transmission:count 340
attr source DenmSent
scalar World.node[339].appl.middleware.DenService reception:count 10132
attr source DenmReceived
scalar World.node[339].nic.phy80211p busyTime 0.049409160997728
scalar World.node[339].nic.mac1609_4 ReceivedUnicastPackets 0
scalar World.node[339].nic.mac1609_4 ReceivedBroadcasts 10696
scalar World.node[339].nic.mac1609_4 SentPackets 734
scalar World.node[339].nic.mac1609_4 SentAcknowledgements 0
scalar World.node[339].nic.mac1609_4 RetriesExceeded 0
scalar World.node[339].nic.mac1609_4 SNIRLostPackets 0
scalar World.node[339].nic.mac1609_4 RXTXLostPackets 1
scalar World.node[339].nic.mac1609_4 TotalLostPackets 1
scalar World.node[339].nic.mac1609_4 DroppedPacketsInMac 0
scalar World.node[339].nic.mac1609_4 TooLittleTime 0
scalar World.node[339].nic.mac1609_4 TimesIntoBackoff 1428
scalar World.node[339].nic.mac1609_4 SlotsBackoff 6256
scalar World.node[339].nic.mac1609_4 NumInternalContention 0
scalar World.node[339].nic.mac1609_4 totalBusyTime 2.32959
scalar World.node[339].nic.mac1609_4 retriesExceeded:count 0
attr source org_car2x_veins_modules_mac_sigRetriesExceeded
scalar World.node[339].nic.mac1609_4 sentAcks:count 0
attr source org_car2x_veins_modules_mac_sigSentAck
scalar World.node[339].nic.mac1609_4 sentPackets:count 734
attr source org_car2x_veins_modules_mac_sigSentPacket
scalar World.node[339].nic.mac1609_4 collisions:count 0
attr source org_car2x_veins_modules_mac_sigCollision
scalar World.node[339].nic.mac1609_4 channelBusy:timeavg 0.052825170068022
attr source org_car2x_veins_modules_mac_sigChannelBusy
scalar World.node[321].appl.middleware.DenService transmission:count 510
attr source DenmSent
scalar World.node[321].appl.middleware.DenService reception:count 27848
attr source DenmReceived
scalar World.node[321].nic.phy80211p busyTime 0.061761366834211
scalar World.node[321].nic.mac1609_4 ReceivedUnicastPackets 0
scalar World.node[321].nic.mac1609_4 ReceivedBroadcasts 30037
scalar World.node[321].nic.mac1609_4 SentPackets 1657
scalar World.node[321].nic.mac1609_4 SentAcknowledgements 0
scalar World.node[321].nic.mac1609_4 RetriesExceeded 0
scalar World.node[321].nic.mac1609_4 SNIRLostPackets 2
scalar World.node[321].nic.mac1609_4 RXTXLostPackets 0
scalar World.node[321].nic.mac1609_4 TotalLostPackets 2
scalar World.node[321].nic.mac1609_4 DroppedPacketsInMac 0
scalar World.node[321].nic.mac1609_4 TooLittleTime 0
scalar World.node[321].nic.mac1609_4 TimesIntoBackoff 2447
scalar World.node[321].nic.mac1609_4 SlotsBackoff 10048
scalar World.node[321].nic.mac1609_4 NumInternalContention 0
scalar World.node[321].nic.mac1609_4 totalBusyTime 6.481969
scalar World.node[321].nic.mac1609_4 retriesExceeded:count 0
attr source org_car2x_veins_modules_mac_sigRetriesExceeded
scalar World.node[321].nic.mac1609_4 sentAcks:count 0
attr source org_car2x_veins_modules_mac_sigSentAck
scalar World.node[321].nic.mac1609_4 sentPackets:count 1657
attr source org_car2x_veins_modules_mac_sigSentPacket
scalar World.node[321].nic.mac1609_4 collisions:count 0
attr source org_car2x_veins_modules_mac_sigCollision
scalar World.node[321].nic.mac1609_4 channelBusy:timeavg 0.065145417085468
attr source org_car2x_veins_modules_mac_sigChannelBusy
scalar World.node[314].appl.middleware.DenService transmission:count 1160
attr source DenmSent
scalar World.node[314].appl.middleware.DenService reception:count 33474
attr source DenmReceived
scalar World.node[314].nic.phy80211p busyTime 0.059320856463175
scalar World.node[314].nic.mac1609_4 ReceivedUnicastPackets 0
scalar World.node[314].nic.mac1609_4 ReceivedBroadcasts 36524
scalar World.node[314].nic.mac1609_4 SentPackets 2101
scalar World.node[314].nic.mac1609_4 SentAcknowledgements 0
scalar World.node[314].nic.mac1609_4 RetriesExceeded 0
scalar World.node[314].nic.mac1609_4 SNIRLostPackets 1
scalar World.node[314].nic.mac1609_4 RXTXLostPackets 0
scalar World.node[314].nic.mac1609_4 TotalLostPackets 1
scalar World.node[314].nic.mac1609_4 DroppedPacketsInMac 0
scalar World.node[314].nic.mac1609_4 TooLittleTime 0
scalar World.node[314].nic.mac1609_4 TimesIntoBackoff 2101
scalar World.node[314].nic.mac1609_4 SlotsBackoff 8164
scalar World.node[314].nic.mac1609_4 NumInternalContention 0
scalar World.node[314].nic.mac1609_4 totalBusyTime 7.905517
scalar World.node[314].nic.mac1609_4 retriesExceeded:count 0
attr source org_car2x_veins_modules_mac_sigRetriesExceeded
scalar World.node[314].nic.mac1609_4 sentAcks:count 0
attr source org_car2x_veins_modules_mac_sigSentAck
scalar World.node[314].nic.mac1609_4 sentPackets:count 2101
attr source org_car2x_veins_modules_mac_sigSentPacket
scalar World.node[314].nic.mac1609_4 collisions:count 0
attr source org_car2x_veins_modules_mac_sigCollision
scalar World.node[314].nic.mac1609_4 channelBusy:timeavg 0.062692442505999
attr source org_car2x_veins_modules_mac_sigChannelBusy
scalar World.node[326].appl.middleware.DenService transmission:count 80
attr source DenmSent
scalar World.node[326].appl.middleware.DenService reception:count 25359
attr source DenmReceived
scalar World.node[326].nic.phy80211p busyTime 0.049606501766811
scalar World.node[326].nic.mac1609_4 ReceivedUnicastPackets 0
scalar World.node[326].nic.mac1609_4 ReceivedBroadcasts 27443
scalar World.node[326].nic.mac1609_4 SentPackets 1886
scalar World.node[326].nic.mac1609_4 SentAcknowledgements 0
scalar World.node[326].nic.mac1609_4 RetriesExceeded 0
scalar World.node[326].nic.mac1609_4 SNIRLostPackets 2
scalar World.node[326].nic.mac1609_4 RXTXLostPackets 0
scalar World.node[326].nic.mac1609_4 TotalLostPackets 2
scalar World.node[326].nic.mac1609_4 DroppedPacketsInMac 0
scalar World.node[326].nic.mac1609_4 TooLittleTime 0
scalar World.node[326].nic.mac1609_4 TimesIntoBackoff 1886
scalar World.node[326].nic.mac1609_4 SlotsBackoff 9650
scalar World.node[326].nic.mac1609_4 NumInternalContention 0
scalar World.node[326].nic.mac1609_4 totalBusyTime 6.010574
scalar World.node[326].nic.mac1609_4 retriesExceeded:count 0
attr source org_car2x_veins_modules_mac_sigRetriesExceeded
scalar World.node[326].nic.mac1609_4 sentAcks:count 0
attr source org_car2x_veins_modules_mac_sigSentAck
scalar World.node[326].nic.mac1609_4 sentPackets:count 1886
attr source org_car2x_veins_modules_mac_sigSentPacket
scalar World.node[326].nic.mac1609_4 collisions:count 0
attr source org_car2x_veins_modules_mac_sigCollision
scalar World.node[326].nic.mac1609_4 channelBusy:timeavg 0.053096943462924
attr source org_car2x_veins_modules_mac_sigChannelBusy
scalar World.node[340].appl.middleware.DenService transmission:count 0
attr source DenmSent
scalar World.node[340].appl.middleware.DenService reception:count 10530
attr source DenmReceived
scalar World.node[340].nic.phy80211p busyTime 0.030125683355884
scalar World.node[340].nic.mac1609_4 ReceivedUnicastPackets 0
scalar World.node[340].nic.mac1609_4 ReceivedBroadcasts 10946
scalar World.node[340].nic.mac1609_4 SentPackets 1231
scalar World.node[340].nic.mac1609_4 SentAcknowledgements 0
scalar World.node[340].nic.mac1609_4 RetriesExceeded 0
scalar World.node[340].nic.mac1609_4 SNIRLostPackets 2
scalar World.node[340].nic.mac1609_4 RXTXLostPackets 0
scalar World.node[340].nic.mac1609_4 TotalLostPackets 2
scalar World.node[340].nic.mac1609_4 DroppedPacketsInMac 0
scalar World.node[340].nic.mac1609_4 TooLittleTime 0
scalar World.node[340].nic.mac1609_4 TimesIntoBackoff 1231
scalar World.node[340].nic.mac1609_4 SlotsBackoff 8986
scalar World.node[340].nic.mac1609_4 NumInternalContention 0
scalar World.node[340].nic.mac1609_4 totalBusyTime 2.495223
scalar World.node[340].nic.mac1609_4 retriesExceeded:count 0
attr source org_car2x_veins_modules_mac_sigRetriesExceeded
scalar World.node[340].nic.mac1609_4 sentAcks:count 0
attr source org_car2x_veins_modules_mac_sigSentAck
scalar World.node[340].nic.mac1609_4 sentPackets:count 1231
attr source org_car2x_veins_modules_mac_sigSentPacket
scalar World.node[340].nic.mac1609_4 collisions:count 0
attr source org_car2x_veins_modules_mac_sigCollision
scalar World.node[340].nic.mac1609_4 channelBusy:timeavg 0.0337648579161
attr source org_car2x_veins_modules_mac_sigChannelBusy
scalar World.node[333].appl.middleware.DenService transmission:count 1011
attr source DenmSent
scalar World.node[333].appl.middleware.DenService reception:count 16263
attr source DenmReceived
scalar World.node[333].nic.phy80211p busyTime 0.033235179856113
scalar World.node[333].nic.mac1609_4 ReceivedUnicastPackets 0
scalar World.node[333].nic.mac1609_4 ReceivedBroadcasts 18012
scalar World.node[333].nic.mac1609_4 SentPackets 1852
scalar World.node[333].nic.mac1609_4 SentAcknowledgements 0
scalar World.node[333].nic.mac1609_4 RetriesExceeded 0
scalar World.node[333].nic.mac1609_4 SNIRLostPackets 1
scalar World.node[333].nic.mac1609_4 RXTXLostPackets 0
scalar World.node[333].nic.mac1609_4 TotalLostPackets 1
scalar World.node[333].nic.mac1609_4 DroppedPacketsInMac 0
scalar World.node[333].nic.mac1609_4 TooLittleTime 0
scalar World.node[333].nic.mac1609_4 TimesIntoBackoff 1928
scalar World.node[333].nic.mac1609_4 SlotsBackoff 7721
scalar World.node[333].nic.mac1609_4 NumInternalContention 0
scalar World.node[333].nic.mac1609_4 totalBusyTime 4.071948
scalar World.node[333].nic.mac1609_4 retriesExceeded:count 0
attr source org_car2x_veins_modules_mac_sigRetriesExceeded
scalar World.node[333].nic.mac1609_4 sentAcks:count 0
attr source org_car2x_veins_modules_mac_sigSentAck
scalar World.node[333].nic.mac1609_4 sentPackets:count 1852
attr source org_car2x_veins_modules_mac_sigSentPacket
scalar World.node[333].nic.mac1609_4 collisions:count 0
attr source org_car2x_veins_modules_mac_sigCollision
scalar World.node[333].nic.mac1609_4 channelBusy:timeavg 0.036618237410071
attr source org_car2x_veins_modules_mac_sigChannelBusy
scalar World.node[328].appl.middleware.DenService transmission:count 1430
attr source DenmSent
scalar World.node[328].appl.middleware.DenService reception:count 21227
attr source DenmReceived
scalar World.node[328].nic.phy80211p busyTime 0.023619505574413
scalar World.node[328].nic.mac1609_4 ReceivedUnicastPackets 0
scalar World.node[328].nic.mac1609_4 ReceivedBroadcasts 23742
scalar World.node[328].nic.mac1609_4 SentPackets 3438
scalar World.node[328].nic.mac1609_4 SentAcknowledgements 0
scalar World.node[328].nic.mac1609_4 RetriesExceeded 0
scalar World.node[328].nic.mac1609_4 SNIRLostPackets 0
scalar World.node[328].nic.mac1609_4 RXTXLostPackets 1
scalar World.node[328].nic.mac1609_4 TotalLostPackets 1
scalar World.node[328].nic.mac1609_4 DroppedPacketsInMac 0
scalar World.node[328].nic.mac1609_4 TooLittleTime 0
scalar World.node[328].nic.mac1609_4 TimesIntoBackoff 3500
scalar World.node[328].nic.mac1609_4 SlotsBackoff 12816
scalar World.node[328].nic.mac1609_4 NumInternalContention 0
scalar World.node[328].nic.mac1609_4 totalBusyTime 5.567054
scalar World.node[328].nic.mac1609_4 retriesExceeded:count 0
attr source org_car2x_veins_modules_mac_sigRetriesExceeded
scalar World.node[328].nic.mac1609_4 sentAcks:count 0
attr source org_car2x_veins_modules_mac_sigSentAck
scalar World.node[328].nic.mac1609_4 sentPackets:count 3438
attr source org_car2x_veins_modules_mac_sigSentPacket
scalar World.node[328].nic.mac1609_4 collisions:count 0
attr source org_car2x_veins_modules_mac_sigCollision
scalar World.node[328].nic.mac1609_4 channelBusy:timeavg 0.026985235094527
attr source org_car2x_veins_modules_mac_sigChannelBusy

