version 2
run veins-0-20241120-12:35:36-292218
attr configname veins
attr datetime 20241120-12:35:36
attr experiment veins
attr inifile omnetpp.ini
attr iterationvars ""
attr iterationvarsf ""
attr measurement ""
attr network artery.veins.World
attr processid 292218
attr repetition 0
attr replication #0
attr resultdir results
attr runnumber 0
attr seedset 0
param *.playgroundSizeX 6000m
param *.playgroundSizeY 6000m
param *.playgroundSizeZ 50m
param *.connectionManager.maxInterfDist 1500m
param *.connectionManager.sendDirect true
param *.connectionManager.coreDebug false
param *.node[*].nic.mac1609_4.txPower 200mW
param *.node[*].nic.phy80211p.decider "xmldoc(\"config.xml\")"
param *.node[*].nic.phy80211p.analogueModels "xmldoc(\"config.xml\")"
param *.node[*].appl.middleware.updateInterval 0.1s
param *.node[*].appl.middleware.datetime "\"2024-06-01 12:35:00\""
param *.node[*].appl.middleware.services "xmldoc(\"services.xml\")"
param *.node[*].appl.middleware.DenService.useCases "xmldoc(\"den-use-cases.xml\")"
param *.withStoryboard true
param *.storyboard.python "\"demo\""
param *.traci.launcher.additionalOptions "\"--log-buffered --log-file=sumo_warnings.log\""
param *.traci.core.version -1
param *.traci.launcher.typename "\"PosixLauncher\""
param *.traci.launcher.sumocfg "\"Slott.sumo.cfg\""
param *.traci.launcher.sumo "\"sumo-gui\""
param *.node[*].wlan[*].typename "\"VanetNic\""
param *.node[*].wlan[*].radio.channelNumber 180
param *.node[*].wlan[*].radio.carrierFrequency "5.9 GHz"
param *.node[*].wlan[*].radio.transmitter.power "200 mW"
param *.node[*].middleware.updateInterval 0.1s
param *.node[*].middleware.datetime "\"2024-06-01 12:35:00\""
param *.node[*].middleware.services "xmldoc(\"services.xml\")"
param *.node[*].middleware.DenService.useCases "xmldoc(\"den-use-cases.xml\")"

scalar World.traci.launcher port 46327
scalar World.node[3].appl.middleware.DenService transmission:count 105
attr source DenmSent
scalar World.node[3].appl.middleware.DenService reception:count 1482
attr source DenmReceived
scalar World.node[3].nic.phy80211p busyTime 0.02033708737864
scalar World.node[3].nic.mac1609_4 ReceivedUnicastPackets 0
scalar World.node[3].nic.mac1609_4 ReceivedBroadcasts 1975
scalar World.node[3].nic.mac1609_4 SentPackets 312
scalar World.node[3].nic.mac1609_4 SentAcknowledgements 0
scalar World.node[3].nic.mac1609_4 RetriesExceeded 0
scalar World.node[3].nic.mac1609_4 SNIRLostPackets 0
scalar World.node[3].nic.mac1609_4 RXTXLostPackets 0
scalar World.node[3].nic.mac1609_4 TotalLostPackets 0
scalar World.node[3].nic.mac1609_4 DroppedPacketsInMac 0
scalar World.node[3].nic.mac1609_4 TooLittleTime 0
scalar World.node[3].nic.mac1609_4 TimesIntoBackoff 312
scalar World.node[3].nic.mac1609_4 SlotsBackoff 1661
scalar World.node[3].nic.mac1609_4 NumInternalContention 0
scalar World.node[3].nic.mac1609_4 totalBusyTime 0.484632
scalar World.node[3].nic.mac1609_4 retriesExceeded:count 0
attr source org_car2x_veins_modules_mac_sigRetriesExceeded
scalar World.node[3].nic.mac1609_4 sentAcks:count 0
attr source org_car2x_veins_modules_mac_sigSentAck
scalar World.node[3].nic.mac1609_4 sentPackets:count 312
attr source org_car2x_veins_modules_mac_sigSentPacket
scalar World.node[3].nic.mac1609_4 collisions:count 0
attr source org_car2x_veins_modules_mac_sigCollision
scalar World.node[3].nic.mac1609_4 channelBusy:timeavg 0.023525825242718
attr source org_car2x_veins_modules_mac_sigChannelBusy
scalar World.node[9].appl.middleware.DenService transmission:count 8
attr source DenmSent
scalar World.node[9].appl.middleware.DenService reception:count 1583
attr source DenmReceived
scalar World.node[9].nic.phy80211p busyTime 0.034780183486238
scalar World.node[9].nic.mac1609_4 ReceivedUnicastPackets 0
scalar World.node[9].nic.mac1609_4 ReceivedBroadcasts 1807
scalar World.node[9].nic.mac1609_4 SentPackets 181
scalar World.node[9].nic.mac1609_4 SentAcknowledgements 0
scalar World.node[9].nic.mac1609_4 RetriesExceeded 0
scalar World.node[9].nic.mac1609_4 SNIRLostPackets 0
scalar World.node[9].nic.mac1609_4 RXTXLostPackets 0
scalar World.node[9].nic.mac1609_4 TotalLostPackets 0
scalar World.node[9].nic.mac1609_4 DroppedPacketsInMac 0
scalar World.node[9].nic.mac1609_4 TooLittleTime 0
scalar World.node[9].nic.mac1609_4 TimesIntoBackoff 181
scalar World.node[9].nic.mac1609_4 SlotsBackoff 1279
scalar World.node[9].nic.mac1609_4 NumInternalContention 0
scalar World.node[9].nic.mac1609_4 totalBusyTime 0.417805
scalar World.node[9].nic.mac1609_4 retriesExceeded:count 0
attr source org_car2x_veins_modules_mac_sigRetriesExceeded
scalar World.node[9].nic.mac1609_4 sentAcks:count 0
attr source org_car2x_veins_modules_mac_sigSentAck
scalar World.node[9].nic.mac1609_4 sentPackets:count 181
attr source org_car2x_veins_modules_mac_sigSentPacket
scalar World.node[9].nic.mac1609_4 collisions:count 0
attr source org_car2x_veins_modules_mac_sigCollision
scalar World.node[9].nic.mac1609_4 channelBusy:timeavg 0.038330733944953
attr source org_car2x_veins_modules_mac_sigChannelBusy
scalar World.node[10].appl.middleware.DenService transmission:count 49
attr source DenmSent
scalar World.node[10].appl.middleware.DenService reception:count 2214
attr source DenmReceived
scalar World.node[10].nic.phy80211p busyTime 0.035425066666665
scalar World.node[10].nic.mac1609_4 ReceivedUnicastPackets 0
scalar World.node[10].nic.mac1609_4 ReceivedBroadcasts 2538
scalar World.node[10].nic.mac1609_4 SentPackets 249
scalar World.node[10].nic.mac1609_4 SentAcknowledgements 0
scalar World.node[10].nic.mac1609_4 RetriesExceeded 0
scalar World.node[10].nic.mac1609_4 SNIRLostPackets 0
scalar World.node[10].nic.mac1609_4 RXTXLostPackets 0
scalar World.node[10].nic.mac1609_4 TotalLostPackets 0
scalar World.node[10].nic.mac1609_4 DroppedPacketsInMac 0
scalar World.node[10].nic.mac1609_4 TooLittleTime 0
scalar World.node[10].nic.mac1609_4 TimesIntoBackoff 249
scalar World.node[10].nic.mac1609_4 SlotsBackoff 1466
scalar World.node[10].nic.mac1609_4 NumInternalContention 0
scalar World.node[10].nic.mac1609_4 totalBusyTime 0.585529
scalar World.node[10].nic.mac1609_4 retriesExceeded:count 0
attr source org_car2x_veins_modules_mac_sigRetriesExceeded
scalar World.node[10].nic.mac1609_4 sentAcks:count 0
attr source org_car2x_veins_modules_mac_sigSentAck
scalar World.node[10].nic.mac1609_4 sentPackets:count 249
attr source org_car2x_veins_modules_mac_sigSentPacket
scalar World.node[10].nic.mac1609_4 collisions:count 0
attr source org_car2x_veins_modules_mac_sigCollision
scalar World.node[10].nic.mac1609_4 channelBusy:timeavg 0.039035266666665
attr source org_car2x_veins_modules_mac_sigChannelBusy
scalar World.node[20].appl.middleware.DenService transmission:count 0
attr source DenmSent
scalar World.node[20].appl.middleware.DenService reception:count 513
attr source DenmReceived
scalar World.node[20].nic.phy80211p busyTime 0.058788000000001
scalar World.node[20].nic.mac1609_4 ReceivedUnicastPackets 0
scalar World.node[20].nic.mac1609_4 ReceivedBroadcasts 567
scalar World.node[20].nic.mac1609_4 SentPackets 32
scalar World.node[20].nic.mac1609_4 SentAcknowledgements 0
scalar World.node[20].nic.mac1609_4 RetriesExceeded 0
scalar World.node[20].nic.mac1609_4 SNIRLostPackets 0
scalar World.node[20].nic.mac1609_4 RXTXLostPackets 0
scalar World.node[20].nic.mac1609_4 TotalLostPackets 0
scalar World.node[20].nic.mac1609_4 DroppedPacketsInMac 0
scalar World.node[20].nic.mac1609_4 TooLittleTime 0
scalar World.node[20].nic.mac1609_4 TimesIntoBackoff 32
scalar World.node[20].nic.mac1609_4 SlotsBackoff 220
scalar World.node[20].nic.mac1609_4 NumInternalContention 0
scalar World.node[20].nic.mac1609_4 totalBusyTime 0.124544
scalar World.node[20].nic.mac1609_4 retriesExceeded:count 0
attr source org_car2x_veins_modules_mac_sigRetriesExceeded
scalar World.node[20].nic.mac1609_4 sentAcks:count 0
attr source org_car2x_veins_modules_mac_sigSentAck
scalar World.node[20].nic.mac1609_4 sentPackets:count 32
attr source org_car2x_veins_modules_mac_sigSentPacket
scalar World.node[20].nic.mac1609_4 collisions:count 0
attr source org_car2x_veins_modules_mac_sigCollision
scalar World.node[20].nic.mac1609_4 channelBusy:timeavg 0.062272000000001
attr source org_car2x_veins_modules_mac_sigChannelBusy
scalar World.node[1].appl.middleware.DenService transmission:count 220
attr source DenmSent
scalar World.node[1].appl.middleware.DenService reception:count 6175
attr source DenmReceived
scalar World.node[1].nic.phy80211p busyTime 0.030000987654318
scalar World.node[1].nic.mac1609_4 ReceivedUnicastPackets 0
scalar World.node[1].nic.mac1609_4 ReceivedBroadcasts 8085
scalar World.node[1].nic.mac1609_4 SentPackets 817
scalar World.node[1].nic.mac1609_4 SentAcknowledgements 0
scalar World.node[1].nic.mac1609_4 RetriesExceeded 0
scalar World.node[1].nic.mac1609_4 SNIRLostPackets 0
scalar World.node[1].nic.mac1609_4 RXTXLostPackets 0
scalar World.node[1].nic.mac1609_4 TotalLostPackets 0
scalar World.node[1].nic.mac1609_4 DroppedPacketsInMac 0
scalar World.node[1].nic.mac1609_4 TooLittleTime 0
scalar World.node[1].nic.mac1609_4 TimesIntoBackoff 817
scalar World.node[1].nic.mac1609_4 SlotsBackoff 2968
scalar World.node[1].nic.mac1609_4 NumInternalContention 0
scalar World.node[1].nic.mac1609_4 totalBusyTime 1.869313
scalar World.node[1].nic.mac1609_4 retriesExceeded:count 0
attr source org_car2x_veins_modules_mac_sigRetriesExceeded
scalar World.node[1].nic.mac1609_4 sentAcks:count 0
attr source org_car2x_veins_modules_mac_sigSentAck
scalar World.node[1].nic.mac1609_4 sentPackets:count 817
attr source org_car2x_veins_modules_mac_sigSentPacket
scalar World.node[1].nic.mac1609_4 collisions:count 0
attr source org_car2x_veins_modules_mac_sigCollision
scalar World.node[1].nic.mac1609_4 channelBusy:timeavg 0.032968483245147
attr source org_car2x_veins_modules_mac_sigChannelBusy
scalar World.node[2].appl.middleware.DenService transmission:count 460
attr source DenmSent
scalar World.node[2].appl.middleware.DenService reception:count 7550
attr source DenmReceived
scalar World.node[2].nic.phy80211p busyTime 0.033722923351156
scalar World.node[2].nic.mac1609_4 ReceivedUnicastPackets 0
scalar World.node[2].nic.mac1609_4 ReceivedBroadcasts 9010
scalar World.node[2].nic.mac1609_4 SentPackets 861
scalar World.node[2].nic.mac1609_4 SentAcknowledgements 0
scalar World.node[2].nic.mac1609_4 RetriesExceeded 0
scalar World.node[2].nic.mac1609_4 SNIRLostPackets 0
scalar World.node[2].nic.mac1609_4 RXTXLostPackets 0
scalar World.node[2].nic.mac1609_4 TotalLostPackets 0
scalar World.node[2].nic.mac1609_4 DroppedPacketsInMac 0
scalar World.node[2].nic.mac1609_4 TooLittleTime 0
scalar World.node[2].nic.mac1609_4 TimesIntoBackoff 861
scalar World.node[2].nic.mac1609_4 SlotsBackoff 3524
scalar World.node[2].nic.mac1609_4 NumInternalContention 0
scalar World.node[2].nic.mac1609_4 totalBusyTime 2.068917
scalar World.node[2].nic.mac1609_4 retriesExceeded:count 0
attr source org_car2x_veins_modules_mac_sigRetriesExceeded
scalar World.node[2].nic.mac1609_4 sentAcks:count 0
attr source org_car2x_veins_modules_mac_sigSentAck
scalar World.node[2].nic.mac1609_4 sentPackets:count 861
attr source org_car2x_veins_modules_mac_sigSentPacket
scalar World.node[2].nic.mac1609_4 collisions:count 0
attr source org_car2x_veins_modules_mac_sigCollision
scalar World.node[2].nic.mac1609_4 channelBusy:timeavg 0.036879090909087
attr source org_car2x_veins_modules_mac_sigChannelBusy
scalar World.node[11].appl.middleware.DenService transmission:count 257
attr source DenmSent
scalar World.node[11].appl.middleware.DenService reception:count 6937
attr source DenmReceived
scalar World.node[11].nic.phy80211p busyTime 0.045887374301672
scalar World.node[11].nic.mac1609_4 ReceivedUnicastPackets 0
scalar World.node[11].nic.mac1609_4 ReceivedBroadcasts 7875
scalar World.node[11].nic.mac1609_4 SentPackets 596
scalar World.node[11].nic.mac1609_4 SentAcknowledgements 0
scalar World.node[11].nic.mac1609_4 RetriesExceeded 0
scalar World.node[11].nic.mac1609_4 SNIRLostPackets 0
scalar World.node[11].nic.mac1609_4 RXTXLostPackets 0
scalar World.node[11].nic.mac1609_4 TotalLostPackets 0
scalar World.node[11].nic.mac1609_4 DroppedPacketsInMac 0
scalar World.node[11].nic.mac1609_4 TooLittleTime 0
scalar World.node[11].nic.mac1609_4 TimesIntoBackoff 596
scalar World.node[11].nic.mac1609_4 SlotsBackoff 2763
scalar World.node[11].nic.mac1609_4 NumInternalContention 0
scalar World.node[11].nic.mac1609_4 totalBusyTime 1.766604
scalar World.node[11].nic.mac1609_4 retriesExceeded:count 0
attr source org_car2x_veins_modules_mac_sigRetriesExceeded
scalar World.node[11].nic.mac1609_4 sentAcks:count 0
attr source org_car2x_veins_modules_mac_sigSentAck
scalar World.node[11].nic.mac1609_4 sentPackets:count 596
attr source org_car2x_veins_modules_mac_sigSentPacket
scalar World.node[11].nic.mac1609_4 collisions:count 0
attr source org_car2x_veins_modules_mac_sigCollision
scalar World.node[11].nic.mac1609_4 channelBusy:timeavg 0.049346480446923
attr source org_car2x_veins_modules_mac_sigChannelBusy
scalar World.node[6].appl.middleware.DenService transmission:count 450
attr source DenmSent
scalar World.node[6].appl.middleware.DenService reception:count 10379
attr source DenmReceived
scalar World.node[6].nic.phy80211p busyTime 0.04560538053097
scalar World.node[6].nic.mac1609_4 ReceivedUnicastPackets 0
scalar World.node[6].nic.mac1609_4 ReceivedBroadcasts 12308
scalar World.node[6].nic.mac1609_4 SentPackets 941
scalar World.node[6].nic.mac1609_4 SentAcknowledgements 0
scalar World.node[6].nic.mac1609_4 RetriesExceeded 0
scalar World.node[6].nic.mac1609_4 SNIRLostPackets 0
scalar World.node[6].nic.mac1609_4 RXTXLostPackets 0
scalar World.node[6].nic.mac1609_4 TotalLostPackets 0
scalar World.node[6].nic.mac1609_4 DroppedPacketsInMac 0
scalar World.node[6].nic.mac1609_4 TooLittleTime 0
scalar World.node[6].nic.mac1609_4 TimesIntoBackoff 941
scalar World.node[6].nic.mac1609_4 SlotsBackoff 3954
scalar World.node[6].nic.mac1609_4 NumInternalContention 0
scalar World.node[6].nic.mac1609_4 totalBusyTime 2.769085
scalar World.node[6].nic.mac1609_4 retriesExceeded:count 0
attr source org_car2x_veins_modules_mac_sigRetriesExceeded
scalar World.node[6].nic.mac1609_4 sentAcks:count 0
attr source org_car2x_veins_modules_mac_sigSentAck
scalar World.node[6].nic.mac1609_4 sentPackets:count 941
attr source org_car2x_veins_modules_mac_sigSentPacket
scalar World.node[6].nic.mac1609_4 collisions:count 0
attr source org_car2x_veins_modules_mac_sigCollision
scalar World.node[6].nic.mac1609_4 channelBusy:timeavg 0.049010353982298
attr source org_car2x_veins_modules_mac_sigChannelBusy
scalar World.node[0].appl.middleware.DenService transmission:count 60
attr source DenmSent
scalar World.node[0].appl.middleware.DenService reception:count 11276
attr source DenmReceived
scalar World.node[0].nic.phy80211p busyTime 0.037230745098037
scalar World.node[0].nic.mac1609_4 ReceivedUnicastPackets 0
scalar World.node[0].nic.mac1609_4 ReceivedBroadcasts 13544
scalar World.node[0].nic.mac1609_4 SentPackets 1154
scalar World.node[0].nic.mac1609_4 SentAcknowledgements 0
scalar World.node[0].nic.mac1609_4 RetriesExceeded 0
scalar World.node[0].nic.mac1609_4 SNIRLostPackets 0
scalar World.node[0].nic.mac1609_4 RXTXLostPackets 0
scalar World.node[0].nic.mac1609_4 TotalLostPackets 0
scalar World.node[0].nic.mac1609_4 DroppedPacketsInMac 0
scalar World.node[0].nic.mac1609_4 TooLittleTime 0
scalar World.node[0].nic.mac1609_4 TimesIntoBackoff 1154
scalar World.node[0].nic.mac1609_4 SlotsBackoff 4443
scalar World.node[0].nic.mac1609_4 NumInternalContention 3
scalar World.node[0].nic.mac1609_4 totalBusyTime 3.082746
scalar World.node[0].nic.mac1609_4 retriesExceeded:count 0
attr source org_car2x_veins_modules_mac_sigRetriesExceeded
scalar World.node[0].nic.mac1609_4 sentAcks:count 0
attr source org_car2x_veins_modules_mac_sigSentAck
scalar World.node[0].nic.mac1609_4 sentPackets:count 1154
attr source org_car2x_veins_modules_mac_sigSentPacket
scalar World.node[0].nic.mac1609_4 collisions:count 0
attr source org_car2x_veins_modules_mac_sigCollision
scalar World.node[0].nic.mac1609_4 channelBusy:timeavg 0.040297333333331
attr source org_car2x_veins_modules_mac_sigChannelBusy
scalar World.node[19].appl.middleware.DenService transmission:count 0
attr source DenmSent
scalar World.node[19].appl.middleware.DenService reception:count 6604
attr source DenmReceived
scalar World.node[19].nic.phy80211p busyTime 0.063346721991696
scalar World.node[19].nic.mac1609_4 ReceivedUnicastPackets 0
scalar World.node[19].nic.mac1609_4 ReceivedBroadcasts 7323
scalar World.node[19].nic.mac1609_4 SentPackets 401
scalar World.node[19].nic.mac1609_4 SentAcknowledgements 0
scalar World.node[19].nic.mac1609_4 RetriesExceeded 0
scalar World.node[19].nic.mac1609_4 SNIRLostPackets 0
scalar World.node[19].nic.mac1609_4 RXTXLostPackets 0
scalar World.node[19].nic.mac1609_4 TotalLostPackets 0
scalar World.node[19].nic.mac1609_4 DroppedPacketsInMac 0
scalar World.node[19].nic.mac1609_4 TooLittleTime 0
scalar World.node[19].nic.mac1609_4 TimesIntoBackoff 401
scalar World.node[19].nic.mac1609_4 SlotsBackoff 2910
scalar World.node[19].nic.mac1609_4 NumInternalContention 0
scalar World.node[19].nic.mac1609_4 totalBusyTime 1.613961
scalar World.node[19].nic.mac1609_4 retriesExceeded:count 0
attr source org_car2x_veins_modules_mac_sigRetriesExceeded
scalar World.node[19].nic.mac1609_4 sentAcks:count 0
attr source org_car2x_veins_modules_mac_sigSentAck
scalar World.node[19].nic.mac1609_4 sentPackets:count 401
attr source org_car2x_veins_modules_mac_sigSentPacket
scalar World.node[19].nic.mac1609_4 collisions:count 0
attr source org_car2x_veins_modules_mac_sigCollision
scalar World.node[19].nic.mac1609_4 channelBusy:timeavg 0.066969336099579
attr source org_car2x_veins_modules_mac_sigChannelBusy
scalar World.node[30].appl.middleware.DenService transmission:count 0
attr source DenmSent
scalar World.node[30].appl.middleware.DenService reception:count 33
attr source DenmReceived
scalar World.node[30].nic.phy80211p busyTime 0.0708
scalar World.node[30].nic.mac1609_4 ReceivedUnicastPackets 0
scalar World.node[30].nic.mac1609_4 ReceivedBroadcasts 36
scalar World.node[30].nic.mac1609_4 SentPackets 1
scalar World.node[30].nic.mac1609_4 SentAcknowledgements 0
scalar World.node[30].nic.mac1609_4 RetriesExceeded 0
scalar World.node[30].nic.mac1609_4 SNIRLostPackets 0
scalar World.node[30].nic.mac1609_4 RXTXLostPackets 0
scalar World.node[30].nic.mac1609_4 TotalLostPackets 0
scalar World.node[30].nic.mac1609_4 DroppedPacketsInMac 0
scalar World.node[30].nic.mac1609_4 TooLittleTime 0
scalar World.node[30].nic.mac1609_4 TimesIntoBackoff 2
scalar World.node[30].nic.mac1609_4 SlotsBackoff 8
scalar World.node[30].nic.mac1609_4 NumInternalContention 0
scalar World.node[30].nic.mac1609_4 totalBusyTime 0.007281
scalar World.node[30].nic.mac1609_4 retriesExceeded:count 0
attr source org_car2x_veins_modules_mac_sigRetriesExceeded
scalar World.node[30].nic.mac1609_4 sentAcks:count 0
attr source org_car2x_veins_modules_mac_sigSentAck
scalar World.node[30].nic.mac1609_4 sentPackets:count 1
attr source org_car2x_veins_modules_mac_sigSentPacket
scalar World.node[30].nic.mac1609_4 collisions:count 0
attr source org_car2x_veins_modules_mac_sigCollision
scalar World.node[30].nic.mac1609_4 channelBusy:timeavg 0.07281
attr source org_car2x_veins_modules_mac_sigChannelBusy
scalar World.node[8].appl.middleware.DenService transmission:count 0
attr source DenmSent
scalar World.node[8].appl.middleware.DenService reception:count 13882
attr source DenmReceived
scalar World.node[8].nic.phy80211p busyTime 0.050890269413626
scalar World.node[8].nic.mac1609_4 ReceivedUnicastPackets 0
scalar World.node[8].nic.mac1609_4 ReceivedBroadcasts 15446
scalar World.node[8].nic.mac1609_4 SentPackets 1051
scalar World.node[8].nic.mac1609_4 SentAcknowledgements 0
scalar World.node[8].nic.mac1609_4 RetriesExceeded 0
scalar World.node[8].nic.mac1609_4 SNIRLostPackets 0
scalar World.node[8].nic.mac1609_4 RXTXLostPackets 0
scalar World.node[8].nic.mac1609_4 TotalLostPackets 0
scalar World.node[8].nic.mac1609_4 DroppedPacketsInMac 0
scalar World.node[8].nic.mac1609_4 TooLittleTime 0
scalar World.node[8].nic.mac1609_4 TimesIntoBackoff 1435
scalar World.node[8].nic.mac1609_4 SlotsBackoff 10766
scalar World.node[8].nic.mac1609_4 NumInternalContention 0
scalar World.node[8].nic.mac1609_4 totalBusyTime 3.444011
scalar World.node[8].nic.mac1609_4 retriesExceeded:count 0
attr source org_car2x_veins_modules_mac_sigRetriesExceeded
scalar World.node[8].nic.mac1609_4 sentAcks:count 0
attr source org_car2x_veins_modules_mac_sigSentAck
scalar World.node[8].nic.mac1609_4 sentPackets:count 1051
attr source org_car2x_veins_modules_mac_sigSentPacket
scalar World.node[8].nic.mac1609_4 collisions:count 0
attr source org_car2x_veins_modules_mac_sigCollision
scalar World.node[8].nic.mac1609_4 channelBusy:timeavg 0.054580206022184
attr source org_car2x_veins_modules_mac_sigChannelBusy
scalar World.node[28].appl.middleware.DenService transmission:count 34
attr source DenmSent
scalar World.node[28].appl.middleware.DenService reception:count 4123
attr source DenmReceived
scalar World.node[28].nic.phy80211p busyTime 0.070489481481477
scalar World.node[28].nic.mac1609_4 ReceivedUnicastPackets 0
scalar World.node[28].nic.mac1609_4 ReceivedBroadcasts 4586
scalar World.node[28].nic.mac1609_4 SentPackets 224
scalar World.node[28].nic.mac1609_4 SentAcknowledgements 0
scalar World.node[28].nic.mac1609_4 RetriesExceeded 0
scalar World.node[28].nic.mac1609_4 SNIRLostPackets 0
scalar World.node[28].nic.mac1609_4 RXTXLostPackets 0
scalar World.node[28].nic.mac1609_4 TotalLostPackets 0
scalar World.node[28].nic.mac1609_4 DroppedPacketsInMac 0
scalar World.node[28].nic.mac1609_4 TooLittleTime 0
scalar World.node[28].nic.mac1609_4 TimesIntoBackoff 224
scalar World.node[28].nic.mac1609_4 SlotsBackoff 1477
scalar World.node[28].nic.mac1609_4 NumInternalContention 0
scalar World.node[28].nic.mac1609_4 totalBusyTime 0.999032
scalar World.node[28].nic.mac1609_4 retriesExceeded:count 0
attr source org_car2x_veins_modules_mac_sigRetriesExceeded
scalar World.node[28].nic.mac1609_4 sentAcks:count 0
attr source org_car2x_veins_modules_mac_sigSentAck
scalar World.node[28].nic.mac1609_4 sentPackets:count 224
attr source org_car2x_veins_modules_mac_sigSentPacket
scalar World.node[28].nic.mac1609_4 collisions:count 0
attr source org_car2x_veins_modules_mac_sigCollision
scalar World.node[28].nic.mac1609_4 channelBusy:timeavg 0.074002370370366
attr source org_car2x_veins_modules_mac_sigChannelBusy
scalar World.node[21].appl.middleware.DenService transmission:count 80
attr source DenmSent
scalar World.node[21].appl.middleware.DenService reception:count 8293
attr source DenmReceived
scalar World.node[21].nic.phy80211p busyTime 0.066637350993372
scalar World.node[21].nic.mac1609_4 ReceivedUnicastPackets 0
scalar World.node[21].nic.mac1609_4 ReceivedBroadcasts 9658
scalar World.node[21].nic.mac1609_4 SentPackets 502
scalar World.node[21].nic.mac1609_4 SentAcknowledgements 0
scalar World.node[21].nic.mac1609_4 RetriesExceeded 0
scalar World.node[21].nic.mac1609_4 SNIRLostPackets 0
scalar World.node[21].nic.mac1609_4 RXTXLostPackets 0
scalar World.node[21].nic.mac1609_4 TotalLostPackets 0
scalar World.node[21].nic.mac1609_4 DroppedPacketsInMac 0
scalar World.node[21].nic.mac1609_4 TooLittleTime 0
scalar World.node[21].nic.mac1609_4 TimesIntoBackoff 502
scalar World.node[21].nic.mac1609_4 SlotsBackoff 2618
scalar World.node[21].nic.mac1609_4 NumInternalContention 0
scalar World.node[21].nic.mac1609_4 totalBusyTime 2.117494
scalar World.node[21].nic.mac1609_4 retriesExceeded:count 0
attr source org_car2x_veins_modules_mac_sigRetriesExceeded
scalar World.node[21].nic.mac1609_4 sentAcks:count 0
attr source org_car2x_veins_modules_mac_sigSentAck
scalar World.node[21].nic.mac1609_4 sentPackets:count 502
attr source org_car2x_veins_modules_mac_sigSentPacket
scalar World.node[21].nic.mac1609_4 collisions:count 0
attr source org_car2x_veins_modules_mac_sigCollision
scalar World.node[21].nic.mac1609_4 channelBusy:timeavg 0.070115695364232
attr source org_car2x_veins_modules_mac_sigChannelBusy
scalar World.node[32].appl.middleware.DenService transmission:count 0
attr source DenmSent
scalar World.node[32].appl.middleware.DenService reception:count 3029
attr source DenmReceived
scalar World.node[32].nic.phy80211p busyTime 0.071650833333329
scalar World.node[32].nic.mac1609_4 ReceivedUnicastPackets 0
scalar World.node[32].nic.mac1609_4 ReceivedBroadcasts 3324
scalar World.node[32].nic.mac1609_4 SentPackets 159
scalar World.node[32].nic.mac1609_4 SentAcknowledgements 0
scalar World.node[32].nic.mac1609_4 RetriesExceeded 0
scalar World.node[32].nic.mac1609_4 SNIRLostPackets 0
scalar World.node[32].nic.mac1609_4 RXTXLostPackets 0
scalar World.node[32].nic.mac1609_4 TotalLostPackets 0
scalar World.node[32].nic.mac1609_4 DroppedPacketsInMac 0
scalar World.node[32].nic.mac1609_4 TooLittleTime 0
scalar World.node[32].nic.mac1609_4 TimesIntoBackoff 159
scalar World.node[32].nic.mac1609_4 SlotsBackoff 1265
scalar World.node[32].nic.mac1609_4 NumInternalContention 0
scalar World.node[32].nic.mac1609_4 totalBusyTime 0.722375
scalar World.node[32].nic.mac1609_4 retriesExceeded:count 0
attr source org_car2x_veins_modules_mac_sigRetriesExceeded
scalar World.node[32].nic.mac1609_4 sentAcks:count 0
attr source org_car2x_veins_modules_mac_sigSentAck
scalar World.node[32].nic.mac1609_4 sentPackets:count 159
attr source org_car2x_veins_modules_mac_sigSentPacket
scalar World.node[32].nic.mac1609_4 collisions:count 0
attr source org_car2x_veins_modules_mac_sigCollision
scalar World.node[32].nic.mac1609_4 channelBusy:timeavg 0.075247395833329
attr source org_car2x_veins_modules_mac_sigChannelBusy
scalar World.node[18].appl.middleware.DenService transmission:count 0
attr source DenmSent
scalar World.node[18].appl.middleware.DenService reception:count 12153
attr source DenmReceived
scalar World.node[18].nic.phy80211p busyTime 0.065650635294113
scalar World.node[18].nic.mac1609_4 ReceivedUnicastPackets 0
scalar World.node[18].nic.mac1609_4 ReceivedBroadcasts 13430
scalar World.node[18].nic.mac1609_4 SentPackets 707
scalar World.node[18].nic.mac1609_4 SentAcknowledgements 0
scalar World.node[18].nic.mac1609_4 RetriesExceeded 0
scalar World.node[18].nic.mac1609_4 SNIRLostPackets 0
scalar World.node[18].nic.mac1609_4 RXTXLostPackets 0
scalar World.node[18].nic.mac1609_4 TotalLostPackets 0
scalar World.node[18].nic.mac1609_4 DroppedPacketsInMac 0
scalar World.node[18].nic.mac1609_4 TooLittleTime 0
scalar World.node[18].nic.mac1609_4 TimesIntoBackoff 835
scalar World.node[18].nic.mac1609_4 SlotsBackoff 6270
scalar World.node[18].nic.mac1609_4 NumInternalContention 0
scalar World.node[18].nic.mac1609_4 totalBusyTime 2.943851
scalar World.node[18].nic.mac1609_4 retriesExceeded:count 0
attr source org_car2x_veins_modules_mac_sigRetriesExceeded
scalar World.node[18].nic.mac1609_4 sentAcks:count 0
attr source org_car2x_veins_modules_mac_sigSentAck
scalar World.node[18].nic.mac1609_4 sentPackets:count 707
attr source org_car2x_veins_modules_mac_sigSentPacket
scalar World.node[18].nic.mac1609_4 collisions:count 0
attr source org_car2x_veins_modules_mac_sigCollision
scalar World.node[18].nic.mac1609_4 channelBusy:timeavg 0.069267082352937
attr source org_car2x_veins_modules_mac_sigChannelBusy
scalar World.node[7].appl.middleware.DenService transmission:count 663
attr source DenmSent
scalar World.node[7].appl.middleware.DenService reception:count 16820
attr source DenmReceived
scalar World.node[7].nic.phy80211p busyTime 0.053535916230366
scalar World.node[7].nic.mac1609_4 ReceivedUnicastPackets 0
scalar World.node[7].nic.mac1609_4 ReceivedBroadcasts 19589
scalar World.node[7].nic.mac1609_4 SentPackets 1272
scalar World.node[7].nic.mac1609_4 SentAcknowledgements 0
scalar World.node[7].nic.mac1609_4 RetriesExceeded 0
scalar World.node[7].nic.mac1609_4 SNIRLostPackets 0
scalar World.node[7].nic.mac1609_4 RXTXLostPackets 0
scalar World.node[7].nic.mac1609_4 TotalLostPackets 0
scalar World.node[7].nic.mac1609_4 DroppedPacketsInMac 0
scalar World.node[7].nic.mac1609_4 TooLittleTime 0
scalar World.node[7].nic.mac1609_4 TimesIntoBackoff 1272
scalar World.node[7].nic.mac1609_4 SlotsBackoff 5032
scalar World.node[7].nic.mac1609_4 NumInternalContention 0
scalar World.node[7].nic.mac1609_4 totalBusyTime 4.349328
scalar World.node[7].nic.mac1609_4 retriesExceeded:count 0
attr source org_car2x_veins_modules_mac_sigRetriesExceeded
scalar World.node[7].nic.mac1609_4 sentAcks:count 0
attr source org_car2x_veins_modules_mac_sigSentAck
scalar World.node[7].nic.mac1609_4 sentPackets:count 1272
attr source org_car2x_veins_modules_mac_sigSentPacket
scalar World.node[7].nic.mac1609_4 collisions:count 0
attr source org_car2x_veins_modules_mac_sigCollision
scalar World.node[7].nic.mac1609_4 channelBusy:timeavg 0.056929850249901
attr source org_car2x_veins_modules_mac_sigChannelBusy
scalar World.node[25].appl.middleware.DenService transmission:count 150
attr source DenmSent
scalar World.node[25].appl.middleware.DenService reception:count 11387
attr source DenmReceived
scalar World.node[25].nic.phy80211p busyTime 0.070722939632541
scalar World.node[25].nic.mac1609_4 ReceivedUnicastPackets 0
scalar World.node[25].nic.mac1609_4 ReceivedBroadcasts 12962
scalar World.node[25].nic.mac1609_4 SentPackets 634
scalar World.node[25].nic.mac1609_4 SentAcknowledgements 0
scalar World.node[25].nic.mac1609_4 RetriesExceeded 0
scalar World.node[25].nic.mac1609_4 SNIRLostPackets 0
scalar World.node[25].nic.mac1609_4 RXTXLostPackets 0
scalar World.node[25].nic.mac1609_4 TotalLostPackets 0
scalar World.node[25].nic.mac1609_4 DroppedPacketsInMac 0
scalar World.node[25].nic.mac1609_4 TooLittleTime 0
scalar World.node[25].nic.mac1609_4 TimesIntoBackoff 634
scalar World.node[25].nic.mac1609_4 SlotsBackoff 2910
scalar World.node[25].nic.mac1609_4 NumInternalContention 0
scalar World.node[25].nic.mac1609_4 totalBusyTime 2.825514
scalar World.node[25].nic.mac1609_4 retriesExceeded:count 0
attr source org_car2x_veins_modules_mac_sigRetriesExceeded
scalar World.node[25].nic.mac1609_4 sentAcks:count 0
attr source org_car2x_veins_modules_mac_sigSentAck
scalar World.node[25].nic.mac1609_4 sentPackets:count 634
attr source org_car2x_veins_modules_mac_sigSentPacket
scalar World.node[25].nic.mac1609_4 collisions:count 0
attr source org_car2x_veins_modules_mac_sigCollision
scalar World.node[25].nic.mac1609_4 channelBusy:timeavg 0.07416047244094
attr source org_car2x_veins_modules_mac_sigChannelBusy
scalar World.node[22].appl.middleware.DenService transmission:count 0
attr source DenmSent
scalar World.node[22].appl.middleware.DenService reception:count 13678
attr source DenmReceived
scalar World.node[22].nic.phy80211p busyTime 0.069258181818177
scalar World.node[22].nic.mac1609_4 ReceivedUnicastPackets 0
scalar World.node[22].nic.mac1609_4 ReceivedBroadcasts 15052
scalar World.node[22].nic.mac1609_4 SentPackets 751
scalar World.node[22].nic.mac1609_4 SentAcknowledgements 0
scalar World.node[22].nic.mac1609_4 RetriesExceeded 0
scalar World.node[22].nic.mac1609_4 SNIRLostPackets 0
scalar World.node[22].nic.mac1609_4 RXTXLostPackets 0
scalar World.node[22].nic.mac1609_4 TotalLostPackets 0
scalar World.node[22].nic.mac1609_4 DroppedPacketsInMac 0
scalar World.node[22].nic.mac1609_4 TooLittleTime 0
scalar World.node[22].nic.mac1609_4 TimesIntoBackoff 768
scalar World.node[22].nic.mac1609_4 SlotsBackoff 5583
scalar World.node[22].nic.mac1609_4 NumInternalContention 0
scalar World.node[22].nic.mac1609_4 totalBusyTime 3.284911
scalar World.node[22].nic.mac1609_4 retriesExceeded:count 0
attr source org_car2x_veins_modules_mac_sigRetriesExceeded
scalar World.node[22].nic.mac1609_4 sentAcks:count 0
attr source org_car2x_veins_modules_mac_sigSentAck
scalar World.node[22].nic.mac1609_4 sentPackets:count 751
attr source org_car2x_veins_modules_mac_sigSentPacket
scalar World.node[22].nic.mac1609_4 collisions:count 0
attr source org_car2x_veins_modules_mac_sigCollision
scalar World.node[22].nic.mac1609_4 channelBusy:timeavg 0.072838648196536
attr source org_car2x_veins_modules_mac_sigChannelBusy
scalar World.node[4].appl.middleware.DenService transmission:count 664
attr source DenmSent
scalar World.node[4].appl.middleware.DenService reception:count 21397
attr source DenmReceived
scalar World.node[4].nic.phy80211p busyTime 0.053357620512842
scalar World.node[4].nic.mac1609_4 ReceivedUnicastPackets 0
scalar World.node[4].nic.mac1609_4 ReceivedBroadcasts 24983
scalar World.node[4].nic.mac1609_4 SentPackets 1624
scalar World.node[4].nic.mac1609_4 SentAcknowledgements 0
scalar World.node[4].nic.mac1609_4 RetriesExceeded 0
scalar World.node[4].nic.mac1609_4 SNIRLostPackets 0
scalar World.node[4].nic.mac1609_4 RXTXLostPackets 0
scalar World.node[4].nic.mac1609_4 TotalLostPackets 0
scalar World.node[4].nic.mac1609_4 DroppedPacketsInMac 0
scalar World.node[4].nic.mac1609_4 TooLittleTime 0
scalar World.node[4].nic.mac1609_4 TimesIntoBackoff 1624
scalar World.node[4].nic.mac1609_4 SlotsBackoff 7088
scalar World.node[4].nic.mac1609_4 NumInternalContention 0
scalar World.node[4].nic.mac1609_4 totalBusyTime 5.536896
scalar World.node[4].nic.mac1609_4 retriesExceeded:count 0
attr source org_car2x_veins_modules_mac_sigRetriesExceeded
scalar World.node[4].nic.mac1609_4 sentAcks:count 0
attr source org_car2x_veins_modules_mac_sigSentAck
scalar World.node[4].nic.mac1609_4 sentPackets:count 1624
attr source org_car2x_veins_modules_mac_sigSentPacket
scalar World.node[4].nic.mac1609_4 collisions:count 0
attr source org_car2x_veins_modules_mac_sigCollision
scalar World.node[4].nic.mac1609_4 channelBusy:timeavg 0.056788676923102
attr source org_car2x_veins_modules_mac_sigChannelBusy
scalar World.node[12].appl.middleware.DenService transmission:count 712
attr source DenmSent
scalar World.node[12].appl.middleware.DenService reception:count 21064
attr source DenmReceived
scalar World.node[12].nic.phy80211p busyTime 0.061267306273083
scalar World.node[12].nic.mac1609_4 ReceivedUnicastPackets 0
scalar World.node[12].nic.mac1609_4 ReceivedBroadcasts 23957
scalar World.node[12].nic.mac1609_4 SentPackets 1354
scalar World.node[12].nic.mac1609_4 SentAcknowledgements 0
scalar World.node[12].nic.mac1609_4 RetriesExceeded 0
scalar World.node[12].nic.mac1609_4 SNIRLostPackets 1
scalar World.node[12].nic.mac1609_4 RXTXLostPackets 0
scalar World.node[12].nic.mac1609_4 TotalLostPackets 1
scalar World.node[12].nic.mac1609_4 DroppedPacketsInMac 0
scalar World.node[12].nic.mac1609_4 TooLittleTime 0
scalar World.node[12].nic.mac1609_4 TimesIntoBackoff 1373
scalar World.node[12].nic.mac1609_4 SlotsBackoff 5571
scalar World.node[12].nic.mac1609_4 NumInternalContention 0
scalar World.node[12].nic.mac1609_4 totalBusyTime 5.256882
scalar World.node[12].nic.mac1609_4 retriesExceeded:count 0
attr source org_car2x_veins_modules_mac_sigRetriesExceeded
scalar World.node[12].nic.mac1609_4 sentAcks:count 0
attr source org_car2x_veins_modules_mac_sigSentAck
scalar World.node[12].nic.mac1609_4 sentPackets:count 1354
attr source org_car2x_veins_modules_mac_sigSentPacket
scalar World.node[12].nic.mac1609_4 collisions:count 0
attr source org_car2x_veins_modules_mac_sigCollision
scalar World.node[12].nic.mac1609_4 channelBusy:timeavg 0.064660295202977
attr source org_car2x_veins_modules_mac_sigChannelBusy
scalar World.node[13].appl.middleware.DenService transmission:count 640
attr source DenmSent
scalar World.node[13].appl.middleware.DenService reception:count 19959
attr source DenmReceived
scalar World.node[13].nic.phy80211p busyTime 0.064113036437263
scalar World.node[13].nic.mac1609_4 ReceivedUnicastPackets 0
scalar World.node[13].nic.mac1609_4 ReceivedBroadcasts 22866
scalar World.node[13].nic.mac1609_4 SentPackets 1234
scalar World.node[13].nic.mac1609_4 SentAcknowledgements 0
scalar World.node[13].nic.mac1609_4 RetriesExceeded 0
scalar World.node[13].nic.mac1609_4 SNIRLostPackets 1
scalar World.node[13].nic.mac1609_4 RXTXLostPackets 0
scalar World.node[13].nic.mac1609_4 TotalLostPackets 1
scalar World.node[13].nic.mac1609_4 DroppedPacketsInMac 0
scalar World.node[13].nic.mac1609_4 TooLittleTime 0
scalar World.node[13].nic.mac1609_4 TimesIntoBackoff 1234
scalar World.node[13].nic.mac1609_4 SlotsBackoff 4951
scalar World.node[13].nic.mac1609_4 NumInternalContention 0
scalar World.node[13].nic.mac1609_4 totalBusyTime 5.00105
scalar World.node[13].nic.mac1609_4 retriesExceeded:count 0
attr source org_car2x_veins_modules_mac_sigRetriesExceeded
scalar World.node[13].nic.mac1609_4 sentAcks:count 0
attr source org_car2x_veins_modules_mac_sigSentAck
scalar World.node[13].nic.mac1609_4 sentPackets:count 1234
attr source org_car2x_veins_modules_mac_sigSentPacket
scalar World.node[13].nic.mac1609_4 collisions:count 0
attr source org_car2x_veins_modules_mac_sigCollision
scalar World.node[13].nic.mac1609_4 channelBusy:timeavg 0.067491952925136
attr source org_car2x_veins_modules_mac_sigChannelBusy
scalar World.node[5].appl.middleware.DenService transmission:count 0
attr source DenmSent
scalar World.node[5].appl.middleware.DenService reception:count 24693
attr source DenmReceived
scalar World.node[5].nic.phy80211p busyTime 0.055601623188436
scalar World.node[5].nic.mac1609_4 ReceivedUnicastPackets 0
scalar World.node[5].nic.mac1609_4 ReceivedBroadcasts 27817
scalar World.node[5].nic.mac1609_4 SentPackets 1724
scalar World.node[5].nic.mac1609_4 SentAcknowledgements 0
scalar World.node[5].nic.mac1609_4 RetriesExceeded 0
scalar World.node[5].nic.mac1609_4 SNIRLostPackets 4
scalar World.node[5].nic.mac1609_4 RXTXLostPackets 0
scalar World.node[5].nic.mac1609_4 TotalLostPackets 4
scalar World.node[5].nic.mac1609_4 DroppedPacketsInMac 0
scalar World.node[5].nic.mac1609_4 TooLittleTime 0
scalar World.node[5].nic.mac1609_4 TimesIntoBackoff 1732
scalar World.node[5].nic.mac1609_4 SlotsBackoff 13008
scalar World.node[5].nic.mac1609_4 NumInternalContention 0
scalar World.node[5].nic.mac1609_4 totalBusyTime 6.141452
scalar World.node[5].nic.mac1609_4 retriesExceeded:count 0
attr source org_car2x_veins_modules_mac_sigRetriesExceeded
scalar World.node[5].nic.mac1609_4 sentAcks:count 0
attr source org_car2x_veins_modules_mac_sigSentAck
scalar World.node[5].nic.mac1609_4 sentPackets:count 1724
attr source org_car2x_veins_modules_mac_sigSentPacket
scalar World.node[5].nic.mac1609_4 collisions:count 0
attr source org_car2x_veins_modules_mac_sigCollision
scalar World.node[5].nic.mac1609_4 channelBusy:timeavg 0.059337700483126
attr source org_car2x_veins_modules_mac_sigChannelBusy
scalar World.node[23].appl.middleware.DenService transmission:count 160
attr source DenmSent
scalar World.node[23].appl.middleware.DenService reception:count 17618
attr source DenmReceived
scalar World.node[23].nic.phy80211p busyTime 0.071543315881326
scalar World.node[23].nic.mac1609_4 ReceivedUnicastPackets 0
scalar World.node[23].nic.mac1609_4 ReceivedBroadcasts 19762
scalar World.node[23].nic.mac1609_4 SentPackets 954
scalar World.node[23].nic.mac1609_4 SentAcknowledgements 0
scalar World.node[23].nic.mac1609_4 RetriesExceeded 0
scalar World.node[23].nic.mac1609_4 SNIRLostPackets 4
scalar World.node[23].nic.mac1609_4 RXTXLostPackets 0
scalar World.node[23].nic.mac1609_4 TotalLostPackets 4
scalar World.node[23].nic.mac1609_4 DroppedPacketsInMac 0
scalar World.node[23].nic.mac1609_4 TooLittleTime 0
scalar World.node[23].nic.mac1609_4 TimesIntoBackoff 954
scalar World.node[23].nic.mac1609_4 SlotsBackoff 4066
scalar World.node[23].nic.mac1609_4 NumInternalContention 0
scalar World.node[23].nic.mac1609_4 totalBusyTime 4.29465
scalar World.node[23].nic.mac1609_4 retriesExceeded:count 0
attr source org_car2x_veins_modules_mac_sigRetriesExceeded
scalar World.node[23].nic.mac1609_4 sentAcks:count 0
attr source org_car2x_veins_modules_mac_sigSentAck
scalar World.node[23].nic.mac1609_4 sentPackets:count 954
attr source org_car2x_veins_modules_mac_sigSentPacket
scalar World.node[23].nic.mac1609_4 collisions:count 0
attr source org_car2x_veins_modules_mac_sigCollision
scalar World.node[23].nic.mac1609_4 channelBusy:timeavg 0.07495026178011
attr source org_car2x_veins_modules_mac_sigChannelBusy
scalar World.node[14].appl.middleware.DenService transmission:count 110
attr source DenmSent
scalar World.node[14].appl.middleware.DenService reception:count 24567
attr source DenmReceived
scalar World.node[14].nic.phy80211p busyTime 0.067668235294154
scalar World.node[14].nic.mac1609_4 ReceivedUnicastPackets 0
scalar World.node[14].nic.mac1609_4 ReceivedBroadcasts 27745
scalar World.node[14].nic.mac1609_4 SentPackets 1416
scalar World.node[14].nic.mac1609_4 SentAcknowledgements 0
scalar World.node[14].nic.mac1609_4 RetriesExceeded 0
scalar World.node[14].nic.mac1609_4 SNIRLostPackets 3
scalar World.node[14].nic.mac1609_4 RXTXLostPackets 0
scalar World.node[14].nic.mac1609_4 TotalLostPackets 3
scalar World.node[14].nic.mac1609_4 DroppedPacketsInMac 0
scalar World.node[14].nic.mac1609_4 TooLittleTime 0
scalar World.node[14].nic.mac1609_4 TimesIntoBackoff 1416
scalar World.node[14].nic.mac1609_4 SlotsBackoff 5818
scalar World.node[14].nic.mac1609_4 NumInternalContention 0
scalar World.node[14].nic.mac1609_4 totalBusyTime 6.040136
scalar World.node[14].nic.mac1609_4 retriesExceeded:count 0
attr source org_car2x_veins_modules_mac_sigRetriesExceeded
scalar World.node[14].nic.mac1609_4 sentAcks:count 0
attr source org_car2x_veins_modules_mac_sigSentAck
scalar World.node[14].nic.mac1609_4 sentPackets:count 1416
attr source org_car2x_veins_modules_mac_sigSentPacket
scalar World.node[14].nic.mac1609_4 collisions:count 0
attr source org_car2x_veins_modules_mac_sigCollision
scalar World.node[14].nic.mac1609_4 channelBusy:timeavg 0.071060423529452
attr source org_car2x_veins_modules_mac_sigChannelBusy
scalar World.node[40].appl.middleware.DenService transmission:count 178
attr source DenmSent
scalar World.node[40].appl.middleware.DenService reception:count 9953
attr source DenmReceived
scalar World.node[40].nic.phy80211p busyTime 0.076985190311412
scalar World.node[40].nic.mac1609_4 ReceivedUnicastPackets 0
scalar World.node[40].nic.mac1609_4 ReceivedBroadcasts 10823
scalar World.node[40].nic.mac1609_4 SentPackets 481
scalar World.node[40].nic.mac1609_4 SentAcknowledgements 0
scalar World.node[40].nic.mac1609_4 RetriesExceeded 0
scalar World.node[40].nic.mac1609_4 SNIRLostPackets 3
scalar World.node[40].nic.mac1609_4 RXTXLostPackets 0
scalar World.node[40].nic.mac1609_4 TotalLostPackets 3
scalar World.node[40].nic.mac1609_4 DroppedPacketsInMac 0
scalar World.node[40].nic.mac1609_4 TooLittleTime 0
scalar World.node[40].nic.mac1609_4 TimesIntoBackoff 481
scalar World.node[40].nic.mac1609_4 SlotsBackoff 2349
scalar World.node[40].nic.mac1609_4 NumInternalContention 0
scalar World.node[40].nic.mac1609_4 totalBusyTime 2.324113
scalar World.node[40].nic.mac1609_4 retriesExceeded:count 0
attr source org_car2x_veins_modules_mac_sigRetriesExceeded
scalar World.node[40].nic.mac1609_4 sentAcks:count 0
attr source org_car2x_veins_modules_mac_sigSentAck
scalar World.node[40].nic.mac1609_4 sentPackets:count 481
attr source org_car2x_veins_modules_mac_sigSentPacket
scalar World.node[40].nic.mac1609_4 collisions:count 0
attr source org_car2x_veins_modules_mac_sigCollision
scalar World.node[40].nic.mac1609_4 channelBusy:timeavg 0.08041913494809
attr source org_car2x_veins_modules_mac_sigChannelBusy
scalar World.node[36].appl.middleware.DenService transmission:count 110
attr source DenmSent
scalar World.node[36].appl.middleware.DenService reception:count 14157
attr source DenmReceived
scalar World.node[36].nic.phy80211p busyTime 0.075967315914484
scalar World.node[36].nic.mac1609_4 ReceivedUnicastPackets 0
scalar World.node[36].nic.mac1609_4 ReceivedBroadcasts 15526
scalar World.node[36].nic.mac1609_4 SentPackets 701
scalar World.node[36].nic.mac1609_4 SentAcknowledgements 0
scalar World.node[36].nic.mac1609_4 RetriesExceeded 0
scalar World.node[36].nic.mac1609_4 SNIRLostPackets 5
scalar World.node[36].nic.mac1609_4 RXTXLostPackets 0
scalar World.node[36].nic.mac1609_4 TotalLostPackets 5
scalar World.node[36].nic.mac1609_4 DroppedPacketsInMac 0
scalar World.node[36].nic.mac1609_4 TooLittleTime 0
scalar World.node[36].nic.mac1609_4 TimesIntoBackoff 701
scalar World.node[36].nic.mac1609_4 SlotsBackoff 3228
scalar World.node[36].nic.mac1609_4 NumInternalContention 0
scalar World.node[36].nic.mac1609_4 totalBusyTime 3.341541
scalar World.node[36].nic.mac1609_4 retriesExceeded:count 0
attr source org_car2x_veins_modules_mac_sigRetriesExceeded
scalar World.node[36].nic.mac1609_4 sentAcks:count 0
attr source org_car2x_veins_modules_mac_sigSentAck
scalar World.node[36].nic.mac1609_4 sentPackets:count 701
attr source org_car2x_veins_modules_mac_sigSentPacket
scalar World.node[36].nic.mac1609_4 collisions:count 0
attr source org_car2x_veins_modules_mac_sigCollision
scalar World.node[36].nic.mac1609_4 channelBusy:timeavg 0.079371520190019
attr source org_car2x_veins_modules_mac_sigChannelBusy
scalar World.node[39].appl.middleware.DenService transmission:count 152
attr source DenmSent
scalar World.node[39].appl.middleware.DenService reception:count 12619
attr source DenmReceived
scalar World.node[39].nic.phy80211p busyTime 0.077342412868628
scalar World.node[39].nic.mac1609_4 ReceivedUnicastPackets 0
scalar World.node[39].nic.mac1609_4 ReceivedBroadcasts 14018
scalar World.node[39].nic.mac1609_4 SentPackets 621
scalar World.node[39].nic.mac1609_4 SentAcknowledgements 0
scalar World.node[39].nic.mac1609_4 RetriesExceeded 0
scalar World.node[39].nic.mac1609_4 SNIRLostPackets 0
scalar World.node[39].nic.mac1609_4 RXTXLostPackets 3
scalar World.node[39].nic.mac1609_4 TotalLostPackets 3
scalar World.node[39].nic.mac1609_4 DroppedPacketsInMac 0
scalar World.node[39].nic.mac1609_4 TooLittleTime 0
scalar World.node[39].nic.mac1609_4 TimesIntoBackoff 640
scalar World.node[39].nic.mac1609_4 SlotsBackoff 2848
scalar World.node[39].nic.mac1609_4 NumInternalContention 0
scalar World.node[39].nic.mac1609_4 totalBusyTime 3.012269
scalar World.node[39].nic.mac1609_4 retriesExceeded:count 0
attr source org_car2x_veins_modules_mac_sigRetriesExceeded
scalar World.node[39].nic.mac1609_4 sentAcks:count 0
attr source org_car2x_veins_modules_mac_sigSentAck
scalar World.node[39].nic.mac1609_4 sentPackets:count 621
attr source org_car2x_veins_modules_mac_sigSentPacket
scalar World.node[39].nic.mac1609_4 collisions:count 0
attr source org_car2x_veins_modules_mac_sigCollision
scalar World.node[39].nic.mac1609_4 channelBusy:timeavg 0.080757882037529
attr source org_car2x_veins_modules_mac_sigChannelBusy
scalar World.node[16].appl.middleware.DenService transmission:count 110
attr source DenmSent
scalar World.node[16].appl.middleware.DenService reception:count 29278
attr source DenmReceived
scalar World.node[16].nic.phy80211p busyTime 0.071164528301939
scalar World.node[16].nic.mac1609_4 ReceivedUnicastPackets 0
scalar World.node[16].nic.mac1609_4 ReceivedBroadcasts 32773
scalar World.node[16].nic.mac1609_4 SentPackets 1589
scalar World.node[16].nic.mac1609_4 SentAcknowledgements 0
scalar World.node[16].nic.mac1609_4 RetriesExceeded 0
scalar World.node[16].nic.mac1609_4 SNIRLostPackets 3
scalar World.node[16].nic.mac1609_4 RXTXLostPackets 0
scalar World.node[16].nic.mac1609_4 TotalLostPackets 3
scalar World.node[16].nic.mac1609_4 DroppedPacketsInMac 0
scalar World.node[16].nic.mac1609_4 TooLittleTime 0
scalar World.node[16].nic.mac1609_4 TimesIntoBackoff 1589
scalar World.node[16].nic.mac1609_4 SlotsBackoff 6939
scalar World.node[16].nic.mac1609_4 NumInternalContention 0
scalar World.node[16].nic.mac1609_4 totalBusyTime 7.115133
scalar World.node[16].nic.mac1609_4 retriesExceeded:count 0
attr source org_car2x_veins_modules_mac_sigRetriesExceeded
scalar World.node[16].nic.mac1609_4 sentAcks:count 0
attr source org_car2x_veins_modules_mac_sigSentAck
scalar World.node[16].nic.mac1609_4 sentPackets:count 1589
attr source org_car2x_veins_modules_mac_sigSentPacket
scalar World.node[16].nic.mac1609_4 collisions:count 0
attr source org_car2x_veins_modules_mac_sigCollision
scalar World.node[16].nic.mac1609_4 channelBusy:timeavg 0.074582106918294
attr source org_car2x_veins_modules_mac_sigChannelBusy
scalar World.node[47].appl.middleware.DenService transmission:count 78
attr source DenmSent
scalar World.node[47].appl.middleware.DenService reception:count 6393
attr source DenmReceived
scalar World.node[47].nic.phy80211p busyTime 0.082400893854742
scalar World.node[47].nic.mac1609_4 ReceivedUnicastPackets 0
scalar World.node[47].nic.mac1609_4 ReceivedBroadcasts 7146
scalar World.node[47].nic.mac1609_4 SentPackets 297
scalar World.node[47].nic.mac1609_4 SentAcknowledgements 0
scalar World.node[47].nic.mac1609_4 RetriesExceeded 0
scalar World.node[47].nic.mac1609_4 SNIRLostPackets 0
scalar World.node[47].nic.mac1609_4 RXTXLostPackets 0
scalar World.node[47].nic.mac1609_4 TotalLostPackets 0
scalar World.node[47].nic.mac1609_4 DroppedPacketsInMac 0
scalar World.node[47].nic.mac1609_4 TooLittleTime 0
scalar World.node[47].nic.mac1609_4 TimesIntoBackoff 297
scalar World.node[47].nic.mac1609_4 SlotsBackoff 1751
scalar World.node[47].nic.mac1609_4 NumInternalContention 0
scalar World.node[47].nic.mac1609_4 totalBusyTime 1.537345
scalar World.node[47].nic.mac1609_4 retriesExceeded:count 0
attr source org_car2x_veins_modules_mac_sigRetriesExceeded
scalar World.node[47].nic.mac1609_4 sentAcks:count 0
attr source org_car2x_veins_modules_mac_sigSentAck
scalar World.node[47].nic.mac1609_4 sentPackets:count 297
attr source org_car2x_veins_modules_mac_sigSentPacket
scalar World.node[47].nic.mac1609_4 collisions:count 0
attr source org_car2x_veins_modules_mac_sigCollision
scalar World.node[47].nic.mac1609_4 channelBusy:timeavg 0.085885195530719
attr source org_car2x_veins_modules_mac_sigChannelBusy
scalar World.node[37].appl.middleware.DenService transmission:count 180
attr source DenmSent
scalar World.node[37].appl.middleware.DenService reception:count 17174
attr source DenmReceived
scalar World.node[37].nic.phy80211p busyTime 0.077828031496059
scalar World.node[37].nic.mac1609_4 ReceivedUnicastPackets 0
scalar World.node[37].nic.mac1609_4 ReceivedBroadcasts 19168
scalar World.node[37].nic.mac1609_4 SentPackets 846
scalar World.node[37].nic.mac1609_4 SentAcknowledgements 0
scalar World.node[37].nic.mac1609_4 RetriesExceeded 0
scalar World.node[37].nic.mac1609_4 SNIRLostPackets 4
scalar World.node[37].nic.mac1609_4 RXTXLostPackets 0
scalar World.node[37].nic.mac1609_4 TotalLostPackets 4
scalar World.node[37].nic.mac1609_4 DroppedPacketsInMac 0
scalar World.node[37].nic.mac1609_4 TooLittleTime 0
scalar World.node[37].nic.mac1609_4 TimesIntoBackoff 864
scalar World.node[37].nic.mac1609_4 SlotsBackoff 3736
scalar World.node[37].nic.mac1609_4 NumInternalContention 0
scalar World.node[37].nic.mac1609_4 totalBusyTime 4.126526
scalar World.node[37].nic.mac1609_4 retriesExceeded:count 0
attr source org_car2x_veins_modules_mac_sigRetriesExceeded
scalar World.node[37].nic.mac1609_4 sentAcks:count 0
attr source org_car2x_veins_modules_mac_sigSentAck
scalar World.node[37].nic.mac1609_4 sentPackets:count 846
attr source org_car2x_veins_modules_mac_sigSentPacket
scalar World.node[37].nic.mac1609_4 collisions:count 0
attr source org_car2x_veins_modules_mac_sigCollision
scalar World.node[37].nic.mac1609_4 channelBusy:timeavg 0.081230826771655
attr source org_car2x_veins_modules_mac_sigChannelBusy
scalar World.node[44].appl.middleware.DenService transmission:count 0
attr source DenmSent
scalar World.node[44].appl.middleware.DenService reception:count 11102
attr source DenmReceived
scalar World.node[44].nic.phy80211p busyTime 0.079655207667725
scalar World.node[44].nic.mac1609_4 ReceivedUnicastPackets 0
scalar World.node[44].nic.mac1609_4 ReceivedBroadcasts 12107
scalar World.node[44].nic.mac1609_4 SentPackets 521
scalar World.node[44].nic.mac1609_4 SentAcknowledgements 0
scalar World.node[44].nic.mac1609_4 RetriesExceeded 0
scalar World.node[44].nic.mac1609_4 SNIRLostPackets 3
scalar World.node[44].nic.mac1609_4 RXTXLostPackets 0
scalar World.node[44].nic.mac1609_4 TotalLostPackets 3
scalar World.node[44].nic.mac1609_4 DroppedPacketsInMac 0
scalar World.node[44].nic.mac1609_4 TooLittleTime 0
scalar World.node[44].nic.mac1609_4 TimesIntoBackoff 521
scalar World.node[44].nic.mac1609_4 SlotsBackoff 4158
scalar World.node[44].nic.mac1609_4 NumInternalContention 0
scalar World.node[44].nic.mac1609_4 totalBusyTime 2.605841
scalar World.node[44].nic.mac1609_4 retriesExceeded:count 0
attr source org_car2x_veins_modules_mac_sigRetriesExceeded
scalar World.node[44].nic.mac1609_4 sentAcks:count 0
attr source org_car2x_veins_modules_mac_sigSentAck
scalar World.node[44].nic.mac1609_4 sentPackets:count 521
attr source org_car2x_veins_modules_mac_sigSentPacket
scalar World.node[44].nic.mac1609_4 collisions:count 0
attr source org_car2x_veins_modules_mac_sigCollision
scalar World.node[44].nic.mac1609_4 channelBusy:timeavg 0.083253706070281
attr source org_car2x_veins_modules_mac_sigChannelBusy
scalar World.node[43].appl.middleware.DenService transmission:count 330
attr source DenmSent
scalar World.node[43].appl.middleware.DenService reception:count 14916
attr source DenmReceived
scalar World.node[43].nic.phy80211p busyTime 0.079766125290018
scalar World.node[43].nic.mac1609_4 ReceivedUnicastPackets 0
scalar World.node[43].nic.mac1609_4 ReceivedBroadcasts 16651
scalar World.node[43].nic.mac1609_4 SentPackets 718
scalar World.node[43].nic.mac1609_4 SentAcknowledgements 0
scalar World.node[43].nic.mac1609_4 RetriesExceeded 0
scalar World.node[43].nic.mac1609_4 SNIRLostPackets 4
scalar World.node[43].nic.mac1609_4 RXTXLostPackets 0
scalar World.node[43].nic.mac1609_4 TotalLostPackets 4
scalar World.node[43].nic.mac1609_4 DroppedPacketsInMac 0
scalar World.node[43].nic.mac1609_4 TooLittleTime 0
scalar World.node[43].nic.mac1609_4 TimesIntoBackoff 718
scalar World.node[43].nic.mac1609_4 SlotsBackoff 3205
scalar World.node[43].nic.mac1609_4 NumInternalContention 0
scalar World.node[43].nic.mac1609_4 totalBusyTime 3.584494
scalar World.node[43].nic.mac1609_4 retriesExceeded:count 0
attr source org_car2x_veins_modules_mac_sigRetriesExceeded
scalar World.node[43].nic.mac1609_4 sentAcks:count 0
attr source org_car2x_veins_modules_mac_sigSentAck
scalar World.node[43].nic.mac1609_4 sentPackets:count 718
attr source org_car2x_veins_modules_mac_sigSentPacket
scalar World.node[43].nic.mac1609_4 collisions:count 0
attr source org_car2x_veins_modules_mac_sigCollision
scalar World.node[43].nic.mac1609_4 channelBusy:timeavg 0.083166914153128
attr source org_car2x_veins_modules_mac_sigChannelBusy
scalar World.node[29].appl.middleware.DenService transmission:count 190
attr source DenmSent
scalar World.node[29].appl.middleware.DenService reception:count 26324
attr source DenmReceived
scalar World.node[29].nic.phy80211p busyTime 0.076446868686913
scalar World.node[29].nic.mac1609_4 ReceivedUnicastPackets 0
scalar World.node[29].nic.mac1609_4 ReceivedBroadcasts 29305
scalar World.node[29].nic.mac1609_4 SentPackets 1319
scalar World.node[29].nic.mac1609_4 SentAcknowledgements 0
scalar World.node[29].nic.mac1609_4 RetriesExceeded 0
scalar World.node[29].nic.mac1609_4 SNIRLostPackets 3
scalar World.node[29].nic.mac1609_4 RXTXLostPackets 0
scalar World.node[29].nic.mac1609_4 TotalLostPackets 3
scalar World.node[29].nic.mac1609_4 DroppedPacketsInMac 0
scalar World.node[29].nic.mac1609_4 TooLittleTime 0
scalar World.node[29].nic.mac1609_4 TimesIntoBackoff 1319
scalar World.node[29].nic.mac1609_4 SlotsBackoff 5658
scalar World.node[29].nic.mac1609_4 NumInternalContention 0
scalar World.node[29].nic.mac1609_4 totalBusyTime 6.323487
scalar World.node[29].nic.mac1609_4 retriesExceeded:count 0
attr source org_car2x_veins_modules_mac_sigRetriesExceeded
scalar World.node[29].nic.mac1609_4 sentAcks:count 0
attr source org_car2x_veins_modules_mac_sigSentAck
scalar World.node[29].nic.mac1609_4 sentPackets:count 1319
attr source org_car2x_veins_modules_mac_sigSentPacket
scalar World.node[29].nic.mac1609_4 collisions:count 0
attr source org_car2x_veins_modules_mac_sigCollision
scalar World.node[29].nic.mac1609_4 channelBusy:timeavg 0.079842007575805
attr source org_car2x_veins_modules_mac_sigChannelBusy
scalar World.node[15].appl.middleware.DenService transmission:count 998
attr source DenmSent
scalar World.node[15].appl.middleware.DenService reception:count 33567
attr source DenmReceived
scalar World.node[15].nic.phy80211p busyTime 0.071613903548744
scalar World.node[15].nic.mac1609_4 ReceivedUnicastPackets 0
scalar World.node[15].nic.mac1609_4 ReceivedBroadcasts 37981
scalar World.node[15].nic.mac1609_4 SentPackets 1831
scalar World.node[15].nic.mac1609_4 SentAcknowledgements 0
scalar World.node[15].nic.mac1609_4 RetriesExceeded 0
scalar World.node[15].nic.mac1609_4 SNIRLostPackets 6
scalar World.node[15].nic.mac1609_4 RXTXLostPackets 0
scalar World.node[15].nic.mac1609_4 TotalLostPackets 6
scalar World.node[15].nic.mac1609_4 DroppedPacketsInMac 0
scalar World.node[15].nic.mac1609_4 TooLittleTime 0
scalar World.node[15].nic.mac1609_4 TimesIntoBackoff 1831
scalar World.node[15].nic.mac1609_4 SlotsBackoff 6916
scalar World.node[15].nic.mac1609_4 NumInternalContention 0
scalar World.node[15].nic.mac1609_4 totalBusyTime 8.241719
scalar World.node[15].nic.mac1609_4 retriesExceeded:count 0
attr source org_car2x_veins_modules_mac_sigRetriesExceeded
scalar World.node[15].nic.mac1609_4 sentAcks:count 0
attr source org_car2x_veins_modules_mac_sigSentAck
scalar World.node[15].nic.mac1609_4 sentPackets:count 1831
attr source org_car2x_veins_modules_mac_sigSentPacket
scalar World.node[15].nic.mac1609_4 collisions:count 0
attr source org_car2x_veins_modules_mac_sigCollision
scalar World.node[15].nic.mac1609_4 channelBusy:timeavg 0.074992893539638
attr source org_car2x_veins_modules_mac_sigChannelBusy
scalar World.node[42].appl.middleware.DenService transmission:count 110
attr source DenmSent
scalar World.node[42].appl.middleware.DenService reception:count 16668
attr source DenmReceived
scalar World.node[42].nic.phy80211p busyTime 0.079351382113817
scalar World.node[42].nic.mac1609_4 ReceivedUnicastPackets 0
scalar World.node[42].nic.mac1609_4 ReceivedBroadcasts 18922
scalar World.node[42].nic.mac1609_4 SentPackets 819
scalar World.node[42].nic.mac1609_4 SentAcknowledgements 0
scalar World.node[42].nic.mac1609_4 RetriesExceeded 0
scalar World.node[42].nic.mac1609_4 SNIRLostPackets 3
scalar World.node[42].nic.mac1609_4 RXTXLostPackets 0
scalar World.node[42].nic.mac1609_4 TotalLostPackets 3
scalar World.node[42].nic.mac1609_4 DroppedPacketsInMac 0
scalar World.node[42].nic.mac1609_4 TooLittleTime 0
scalar World.node[42].nic.mac1609_4 TimesIntoBackoff 819
scalar World.node[42].nic.mac1609_4 SlotsBackoff 3591
scalar World.node[42].nic.mac1609_4 NumInternalContention 0
scalar World.node[42].nic.mac1609_4 totalBusyTime 4.072451
scalar World.node[42].nic.mac1609_4 retriesExceeded:count 0
attr source org_car2x_veins_modules_mac_sigRetriesExceeded
scalar World.node[42].nic.mac1609_4 sentAcks:count 0
attr source org_car2x_veins_modules_mac_sigSentAck
scalar World.node[42].nic.mac1609_4 sentPackets:count 819
attr source org_car2x_veins_modules_mac_sigSentPacket
scalar World.node[42].nic.mac1609_4 collisions:count 0
attr source org_car2x_veins_modules_mac_sigCollision
scalar World.node[42].nic.mac1609_4 channelBusy:timeavg 0.082773394308942
attr source org_car2x_veins_modules_mac_sigChannelBusy
scalar World.node[49].appl.middleware.DenService transmission:count 180
attr source DenmSent
scalar World.node[49].appl.middleware.DenService reception:count 9909
attr source DenmReceived
scalar World.node[49].nic.phy80211p busyTime 0.081187473309602
scalar World.node[49].nic.mac1609_4 ReceivedUnicastPackets 0
scalar World.node[49].nic.mac1609_4 ReceivedBroadcasts 11034
scalar World.node[49].nic.mac1609_4 SentPackets 468
scalar World.node[49].nic.mac1609_4 SentAcknowledgements 0
scalar World.node[49].nic.mac1609_4 RetriesExceeded 0
scalar World.node[49].nic.mac1609_4 SNIRLostPackets 0
scalar World.node[49].nic.mac1609_4 RXTXLostPackets 0
scalar World.node[49].nic.mac1609_4 TotalLostPackets 0
scalar World.node[49].nic.mac1609_4 DroppedPacketsInMac 0
scalar World.node[49].nic.mac1609_4 TooLittleTime 0
scalar World.node[49].nic.mac1609_4 TimesIntoBackoff 468
scalar World.node[49].nic.mac1609_4 SlotsBackoff 2278
scalar World.node[49].nic.mac1609_4 NumInternalContention 0
scalar World.node[49].nic.mac1609_4 totalBusyTime 2.378292
scalar World.node[49].nic.mac1609_4 retriesExceeded:count 0
attr source org_car2x_veins_modules_mac_sigRetriesExceeded
scalar World.node[49].nic.mac1609_4 sentAcks:count 0
attr source org_car2x_veins_modules_mac_sigSentAck
scalar World.node[49].nic.mac1609_4 sentPackets:count 468
attr source org_car2x_veins_modules_mac_sigSentPacket
scalar World.node[49].nic.mac1609_4 collisions:count 0
attr source org_car2x_veins_modules_mac_sigCollision
scalar World.node[49].nic.mac1609_4 channelBusy:timeavg 0.084636725978641
attr source org_car2x_veins_modules_mac_sigChannelBusy
scalar World.node[53].appl.middleware.DenService transmission:count 120
attr source DenmSent
scalar World.node[53].appl.middleware.DenService reception:count 10196
attr source DenmReceived
scalar World.node[53].nic.phy80211p busyTime 0.078962875816987
scalar World.node[53].nic.mac1609_4 ReceivedUnicastPackets 0
scalar World.node[53].nic.mac1609_4 ReceivedBroadcasts 11659
scalar World.node[53].nic.mac1609_4 SentPackets 509
scalar World.node[53].nic.mac1609_4 SentAcknowledgements 0
scalar World.node[53].nic.mac1609_4 RetriesExceeded 0
scalar World.node[53].nic.mac1609_4 SNIRLostPackets 1
scalar World.node[53].nic.mac1609_4 RXTXLostPackets 0
scalar World.node[53].nic.mac1609_4 TotalLostPackets 1
scalar World.node[53].nic.mac1609_4 DroppedPacketsInMac 0
scalar World.node[53].nic.mac1609_4 TooLittleTime 0
scalar World.node[53].nic.mac1609_4 TimesIntoBackoff 509
scalar World.node[53].nic.mac1609_4 SlotsBackoff 2613
scalar World.node[53].nic.mac1609_4 NumInternalContention 0
scalar World.node[53].nic.mac1609_4 totalBusyTime 2.521909
scalar World.node[53].nic.mac1609_4 retriesExceeded:count 0
attr source org_car2x_veins_modules_mac_sigRetriesExceeded
scalar World.node[53].nic.mac1609_4 sentAcks:count 0
attr source org_car2x_veins_modules_mac_sigSentAck
scalar World.node[53].nic.mac1609_4 sentPackets:count 509
attr source org_car2x_veins_modules_mac_sigSentPacket
scalar World.node[53].nic.mac1609_4 collisions:count 0
attr source org_car2x_veins_modules_mac_sigCollision
scalar World.node[53].nic.mac1609_4 channelBusy:timeavg 0.082415326797379
attr source org_car2x_veins_modules_mac_sigChannelBusy
scalar World.node[26].appl.middleware.DenService transmission:count 180
attr source DenmSent
scalar World.node[26].appl.middleware.DenService reception:count 32977
attr source DenmReceived
scalar World.node[26].nic.phy80211p busyTime 0.075748174603238
scalar World.node[26].nic.mac1609_4 ReceivedUnicastPackets 0
scalar World.node[26].nic.mac1609_4 ReceivedBroadcasts 36881
scalar World.node[26].nic.mac1609_4 SentPackets 1679
scalar World.node[26].nic.mac1609_4 SentAcknowledgements 0
scalar World.node[26].nic.mac1609_4 RetriesExceeded 0
scalar World.node[26].nic.mac1609_4 SNIRLostPackets 7
scalar World.node[26].nic.mac1609_4 RXTXLostPackets 0
scalar World.node[26].nic.mac1609_4 TotalLostPackets 7
scalar World.node[26].nic.mac1609_4 DroppedPacketsInMac 0
scalar World.node[26].nic.mac1609_4 TooLittleTime 0
scalar World.node[26].nic.mac1609_4 TimesIntoBackoff 1679
scalar World.node[26].nic.mac1609_4 SlotsBackoff 7192
scalar World.node[26].nic.mac1609_4 NumInternalContention 0
scalar World.node[26].nic.mac1609_4 totalBusyTime 7.977839
scalar World.node[26].nic.mac1609_4 retriesExceeded:count 0
attr source org_car2x_veins_modules_mac_sigRetriesExceeded
scalar World.node[26].nic.mac1609_4 sentAcks:count 0
attr source org_car2x_veins_modules_mac_sigSentAck
scalar World.node[26].nic.mac1609_4 sentPackets:count 1679
attr source org_car2x_veins_modules_mac_sigSentPacket
scalar World.node[26].nic.mac1609_4 collisions:count 0
attr source org_car2x_veins_modules_mac_sigCollision
scalar World.node[26].nic.mac1609_4 channelBusy:timeavg 0.079145228174668
attr source org_car2x_veins_modules_mac_sigChannelBusy
scalar World.node[45].appl.middleware.DenService transmission:count 298
attr source DenmSent
scalar World.node[45].appl.middleware.DenService reception:count 18032
attr source DenmReceived
scalar World.node[45].nic.phy80211p busyTime 0.07885761814745
scalar World.node[45].nic.mac1609_4 ReceivedUnicastPackets 0
scalar World.node[45].nic.mac1609_4 ReceivedBroadcasts 20173
scalar World.node[45].nic.mac1609_4 SentPackets 881
scalar World.node[45].nic.mac1609_4 SentAcknowledgements 0
scalar World.node[45].nic.mac1609_4 RetriesExceeded 0
scalar World.node[45].nic.mac1609_4 SNIRLostPackets 5
scalar World.node[45].nic.mac1609_4 RXTXLostPackets 0
scalar World.node[45].nic.mac1609_4 TotalLostPackets 5
scalar World.node[45].nic.mac1609_4 DroppedPacketsInMac 0
scalar World.node[45].nic.mac1609_4 TooLittleTime 0
scalar World.node[45].nic.mac1609_4 TimesIntoBackoff 881
scalar World.node[45].nic.mac1609_4 SlotsBackoff 3735
scalar World.node[45].nic.mac1609_4 NumInternalContention 0
scalar World.node[45].nic.mac1609_4 totalBusyTime 4.351721
scalar World.node[45].nic.mac1609_4 retriesExceeded:count 0
attr source org_car2x_veins_modules_mac_sigRetriesExceeded
scalar World.node[45].nic.mac1609_4 sentAcks:count 0
attr source org_car2x_veins_modules_mac_sigSentAck
scalar World.node[45].nic.mac1609_4 sentPackets:count 881
attr source org_car2x_veins_modules_mac_sigSentPacket
scalar World.node[45].nic.mac1609_4 collisions:count 0
attr source org_car2x_veins_modules_mac_sigCollision
scalar World.node[45].nic.mac1609_4 channelBusy:timeavg 0.082263156899819
attr source org_car2x_veins_modules_mac_sigChannelBusy
scalar World.node[24].appl.middleware.DenService transmission:count 999
attr source DenmSent
scalar World.node[24].appl.middleware.DenService reception:count 34808
attr source DenmReceived
scalar World.node[24].nic.phy80211p busyTime 0.075011054545514
scalar World.node[24].nic.mac1609_4 ReceivedUnicastPackets 0
scalar World.node[24].nic.mac1609_4 ReceivedBroadcasts 39817
scalar World.node[24].nic.mac1609_4 SentPackets 1832
scalar World.node[24].nic.mac1609_4 SentAcknowledgements 0
scalar World.node[24].nic.mac1609_4 RetriesExceeded 0
scalar World.node[24].nic.mac1609_4 SNIRLostPackets 4
scalar World.node[24].nic.mac1609_4 RXTXLostPackets 0
scalar World.node[24].nic.mac1609_4 TotalLostPackets 4
scalar World.node[24].nic.mac1609_4 DroppedPacketsInMac 0
scalar World.node[24].nic.mac1609_4 TooLittleTime 0
scalar World.node[24].nic.mac1609_4 TimesIntoBackoff 1832
scalar World.node[24].nic.mac1609_4 SlotsBackoff 7106
scalar World.node[24].nic.mac1609_4 NumInternalContention 0
scalar World.node[24].nic.mac1609_4 totalBusyTime 8.621832
scalar World.node[24].nic.mac1609_4 retriesExceeded:count 0
attr source org_car2x_veins_modules_mac_sigRetriesExceeded
scalar World.node[24].nic.mac1609_4 sentAcks:count 0
attr source org_car2x_veins_modules_mac_sigSentAck
scalar World.node[24].nic.mac1609_4 sentPackets:count 1832
attr source org_car2x_veins_modules_mac_sigSentPacket
scalar World.node[24].nic.mac1609_4 collisions:count 0
attr source org_car2x_veins_modules_mac_sigCollision
scalar World.node[24].nic.mac1609_4 channelBusy:timeavg 0.078380290909141
attr source org_car2x_veins_modules_mac_sigChannelBusy
scalar World.node[17].appl.middleware.DenService transmission:count 0
attr source DenmSent
scalar World.node[17].appl.middleware.DenService reception:count 39805
attr source DenmReceived
scalar World.node[17].nic.phy80211p busyTime 0.072516077170459
scalar World.node[17].nic.mac1609_4 ReceivedUnicastPackets 0
scalar World.node[17].nic.mac1609_4 ReceivedBroadcasts 43679
scalar World.node[17].nic.mac1609_4 SentPackets 2072
scalar World.node[17].nic.mac1609_4 SentAcknowledgements 0
scalar World.node[17].nic.mac1609_4 RetriesExceeded 0
scalar World.node[17].nic.mac1609_4 SNIRLostPackets 3
scalar World.node[17].nic.mac1609_4 RXTXLostPackets 1
scalar World.node[17].nic.mac1609_4 TotalLostPackets 4
scalar World.node[17].nic.mac1609_4 DroppedPacketsInMac 0
scalar World.node[17].nic.mac1609_4 TooLittleTime 0
scalar World.node[17].nic.mac1609_4 TimesIntoBackoff 2130
scalar World.node[17].nic.mac1609_4 SlotsBackoff 16223
scalar World.node[17].nic.mac1609_4 NumInternalContention 0
scalar World.node[17].nic.mac1609_4 totalBusyTime 9.475984
scalar World.node[17].nic.mac1609_4 retriesExceeded:count 0
attr source org_car2x_veins_modules_mac_sigRetriesExceeded
scalar World.node[17].nic.mac1609_4 sentAcks:count 0
attr source org_car2x_veins_modules_mac_sigSentAck
scalar World.node[17].nic.mac1609_4 sentPackets:count 2072
attr source org_car2x_veins_modules_mac_sigSentPacket
scalar World.node[17].nic.mac1609_4 collisions:count 0
attr source org_car2x_veins_modules_mac_sigCollision
scalar World.node[17].nic.mac1609_4 channelBusy:timeavg 0.076173504823183
attr source org_car2x_veins_modules_mac_sigChannelBusy
scalar World.node[27].appl.middleware.DenService transmission:count 880
attr source DenmSent
scalar World.node[27].appl.middleware.DenService reception:count 33118
attr source DenmReceived
scalar World.node[27].nic.phy80211p busyTime 0.075560955109903
scalar World.node[27].nic.mac1609_4 ReceivedUnicastPackets 0
scalar World.node[27].nic.mac1609_4 ReceivedBroadcasts 38206
scalar World.node[27].nic.mac1609_4 SentPackets 1744
scalar World.node[27].nic.mac1609_4 SentAcknowledgements 0
scalar World.node[27].nic.mac1609_4 RetriesExceeded 0
scalar World.node[27].nic.mac1609_4 SNIRLostPackets 4
scalar World.node[27].nic.mac1609_4 RXTXLostPackets 0
scalar World.node[27].nic.mac1609_4 TotalLostPackets 4
scalar World.node[27].nic.mac1609_4 DroppedPacketsInMac 0
scalar World.node[27].nic.mac1609_4 TooLittleTime 0
scalar World.node[27].nic.mac1609_4 TimesIntoBackoff 1744
scalar World.node[27].nic.mac1609_4 SlotsBackoff 6798
scalar World.node[27].nic.mac1609_4 NumInternalContention 0
scalar World.node[27].nic.mac1609_4 totalBusyTime 8.26492
scalar World.node[27].nic.mac1609_4 retriesExceeded:count 0
attr source org_car2x_veins_modules_mac_sigRetriesExceeded
scalar World.node[27].nic.mac1609_4 sentAcks:count 0
attr source org_car2x_veins_modules_mac_sigSentAck
scalar World.node[27].nic.mac1609_4 sentPackets:count 1744
attr source org_car2x_veins_modules_mac_sigSentPacket
scalar World.node[27].nic.mac1609_4 collisions:count 0
attr source org_car2x_veins_modules_mac_sigCollision
scalar World.node[27].nic.mac1609_4 channelBusy:timeavg 0.078939063992417
attr source org_car2x_veins_modules_mac_sigChannelBusy
scalar World.node[38].appl.middleware.DenService transmission:count 0
attr source DenmSent
scalar World.node[38].appl.middleware.DenService reception:count 29093
attr source DenmReceived
scalar World.node[38].nic.phy80211p busyTime 0.076154298850627
scalar World.node[38].nic.mac1609_4 ReceivedUnicastPackets 0
scalar World.node[38].nic.mac1609_4 ReceivedBroadcasts 32092
scalar World.node[38].nic.mac1609_4 SentPackets 1449
scalar World.node[38].nic.mac1609_4 SentAcknowledgements 0
scalar World.node[38].nic.mac1609_4 RetriesExceeded 0
scalar World.node[38].nic.mac1609_4 SNIRLostPackets 7
scalar World.node[38].nic.mac1609_4 RXTXLostPackets 0
scalar World.node[38].nic.mac1609_4 TotalLostPackets 7
scalar World.node[38].nic.mac1609_4 DroppedPacketsInMac 0
scalar World.node[38].nic.mac1609_4 TooLittleTime 0
scalar World.node[38].nic.mac1609_4 TimesIntoBackoff 1449
scalar World.node[38].nic.mac1609_4 SlotsBackoff 11093
scalar World.node[38].nic.mac1609_4 NumInternalContention 0
scalar World.node[38].nic.mac1609_4 totalBusyTime 6.939993
scalar World.node[38].nic.mac1609_4 retriesExceeded:count 0
attr source org_car2x_veins_modules_mac_sigRetriesExceeded
scalar World.node[38].nic.mac1609_4 sentAcks:count 0
attr source org_car2x_veins_modules_mac_sigSentAck
scalar World.node[38].nic.mac1609_4 sentPackets:count 1449
attr source org_car2x_veins_modules_mac_sigSentPacket
scalar World.node[38].nic.mac1609_4 collisions:count 0
attr source org_car2x_veins_modules_mac_sigCollision
scalar World.node[38].nic.mac1609_4 channelBusy:timeavg 0.079770034482814
attr source org_car2x_veins_modules_mac_sigChannelBusy
scalar World.node[31].appl.middleware.DenService transmission:count 200
attr source DenmSent
scalar World.node[31].appl.middleware.DenService reception:count 35485
attr source DenmReceived
scalar World.node[31].nic.phy80211p busyTime 0.075501617647119
scalar World.node[31].nic.mac1609_4 ReceivedUnicastPackets 0
scalar World.node[31].nic.mac1609_4 ReceivedBroadcasts 39673
scalar World.node[31].nic.mac1609_4 SentPackets 1812
scalar World.node[31].nic.mac1609_4 SentAcknowledgements 0
scalar World.node[31].nic.mac1609_4 RetriesExceeded 0
scalar World.node[31].nic.mac1609_4 SNIRLostPackets 4
scalar World.node[31].nic.mac1609_4 RXTXLostPackets 0
scalar World.node[31].nic.mac1609_4 TotalLostPackets 4
scalar World.node[31].nic.mac1609_4 DroppedPacketsInMac 0
scalar World.node[31].nic.mac1609_4 TooLittleTime 0
scalar World.node[31].nic.mac1609_4 TimesIntoBackoff 1830
scalar World.node[31].nic.mac1609_4 SlotsBackoff 8447
scalar World.node[31].nic.mac1609_4 NumInternalContention 0
scalar World.node[31].nic.mac1609_4 totalBusyTime 8.587836
scalar World.node[31].nic.mac1609_4 retriesExceeded:count 0
attr source org_car2x_veins_modules_mac_sigRetriesExceeded
scalar World.node[31].nic.mac1609_4 sentAcks:count 0
attr source org_car2x_veins_modules_mac_sigSentAck
scalar World.node[31].nic.mac1609_4 sentPackets:count 1812
attr source org_car2x_veins_modules_mac_sigSentPacket
scalar World.node[31].nic.mac1609_4 collisions:count 0
attr source org_car2x_veins_modules_mac_sigCollision
scalar World.node[31].nic.mac1609_4 channelBusy:timeavg 0.07893231617652
attr source org_car2x_veins_modules_mac_sigChannelBusy
scalar World.node[56].appl.middleware.DenService transmission:count 0
attr source DenmSent
scalar World.node[56].appl.middleware.DenService reception:count 11873
attr source DenmReceived
scalar World.node[56].nic.phy80211p busyTime 0.072961279999995
scalar World.node[56].nic.mac1609_4 ReceivedUnicastPackets 0
scalar World.node[56].nic.mac1609_4 ReceivedBroadcasts 13154
scalar World.node[56].nic.mac1609_4 SentPackets 624
scalar World.node[56].nic.mac1609_4 SentAcknowledgements 0
scalar World.node[56].nic.mac1609_4 RetriesExceeded 0
scalar World.node[56].nic.mac1609_4 SNIRLostPackets 1
scalar World.node[56].nic.mac1609_4 RXTXLostPackets 0
scalar World.node[56].nic.mac1609_4 TotalLostPackets 1
scalar World.node[56].nic.mac1609_4 DroppedPacketsInMac 0
scalar World.node[56].nic.mac1609_4 TooLittleTime 0
scalar World.node[56].nic.mac1609_4 TimesIntoBackoff 660
scalar World.node[56].nic.mac1609_4 SlotsBackoff 4971
scalar World.node[56].nic.mac1609_4 NumInternalContention 0
scalar World.node[56].nic.mac1609_4 totalBusyTime 2.871432
scalar World.node[56].nic.mac1609_4 retriesExceeded:count 0
attr source org_car2x_veins_modules_mac_sigRetriesExceeded
scalar World.node[56].nic.mac1609_4 sentAcks:count 0
attr source org_car2x_veins_modules_mac_sigSentAck
scalar World.node[56].nic.mac1609_4 sentPackets:count 624
attr source org_car2x_veins_modules_mac_sigSentPacket
scalar World.node[56].nic.mac1609_4 collisions:count 0
attr source org_car2x_veins_modules_mac_sigCollision
scalar World.node[56].nic.mac1609_4 channelBusy:timeavg 0.076571519999995
attr source org_car2x_veins_modules_mac_sigChannelBusy
scalar World.node[33].appl.middleware.DenService transmission:count 0
attr source DenmSent
scalar World.node[33].appl.middleware.DenService reception:count 38716
attr source DenmReceived
scalar World.node[33].nic.phy80211p busyTime 0.075679862069012
scalar World.node[33].nic.mac1609_4 ReceivedUnicastPackets 0
scalar World.node[33].nic.mac1609_4 ReceivedBroadcasts 42480
scalar World.node[33].nic.mac1609_4 SentPackets 1933
scalar World.node[33].nic.mac1609_4 SentAcknowledgements 0
scalar World.node[33].nic.mac1609_4 RetriesExceeded 0
scalar World.node[33].nic.mac1609_4 SNIRLostPackets 1
scalar World.node[33].nic.mac1609_4 RXTXLostPackets 3
scalar World.node[33].nic.mac1609_4 TotalLostPackets 4
scalar World.node[33].nic.mac1609_4 DroppedPacketsInMac 0
scalar World.node[33].nic.mac1609_4 TooLittleTime 0
scalar World.node[33].nic.mac1609_4 TimesIntoBackoff 2538
scalar World.node[33].nic.mac1609_4 SlotsBackoff 18971
scalar World.node[33].nic.mac1609_4 NumInternalContention 0
scalar World.node[33].nic.mac1609_4 totalBusyTime 9.198669
scalar World.node[33].nic.mac1609_4 retriesExceeded:count 0
attr source org_car2x_veins_modules_mac_sigRetriesExceeded
scalar World.node[33].nic.mac1609_4 sentAcks:count 0
attr source org_car2x_veins_modules_mac_sigSentAck
scalar World.node[33].nic.mac1609_4 sentPackets:count 1933
attr source org_car2x_veins_modules_mac_sigSentPacket
scalar World.node[33].nic.mac1609_4 collisions:count 0
attr source org_car2x_veins_modules_mac_sigCollision
scalar World.node[33].nic.mac1609_4 channelBusy:timeavg 0.079298870689692
attr source org_car2x_veins_modules_mac_sigChannelBusy
scalar World.node[66].appl.middleware.DenService transmission:count 10
attr source DenmSent
scalar World.node[66].appl.middleware.DenService reception:count 5207
attr source DenmReceived
scalar World.node[66].nic.phy80211p busyTime 0.077198980891714
scalar World.node[66].nic.mac1609_4 ReceivedUnicastPackets 0
scalar World.node[66].nic.mac1609_4 ReceivedBroadcasts 5835
scalar World.node[66].nic.mac1609_4 SentPackets 261
scalar World.node[66].nic.mac1609_4 SentAcknowledgements 0
scalar World.node[66].nic.mac1609_4 RetriesExceeded 0
scalar World.node[66].nic.mac1609_4 SNIRLostPackets 0
scalar World.node[66].nic.mac1609_4 RXTXLostPackets 0
scalar World.node[66].nic.mac1609_4 TotalLostPackets 0
scalar World.node[66].nic.mac1609_4 DroppedPacketsInMac 0
scalar World.node[66].nic.mac1609_4 TooLittleTime 0
scalar World.node[66].nic.mac1609_4 TimesIntoBackoff 261
scalar World.node[66].nic.mac1609_4 SlotsBackoff 1750
scalar World.node[66].nic.mac1609_4 NumInternalContention 0
scalar World.node[66].nic.mac1609_4 totalBusyTime 1.268813
scalar World.node[66].nic.mac1609_4 retriesExceeded:count 0
attr source org_car2x_veins_modules_mac_sigRetriesExceeded
scalar World.node[66].nic.mac1609_4 sentAcks:count 0
attr source org_car2x_veins_modules_mac_sigSentAck
scalar World.node[66].nic.mac1609_4 sentPackets:count 261
attr source org_car2x_veins_modules_mac_sigSentPacket
scalar World.node[66].nic.mac1609_4 collisions:count 0
attr source org_car2x_veins_modules_mac_sigCollision
scalar World.node[66].nic.mac1609_4 channelBusy:timeavg 0.080816114649675
attr source org_car2x_veins_modules_mac_sigChannelBusy
scalar World.node[65].appl.middleware.DenService transmission:count 0
attr source DenmSent
scalar World.node[65].appl.middleware.DenService reception:count 7037
attr source DenmReceived
scalar World.node[65].nic.phy80211p busyTime 0.077498181818175
scalar World.node[65].nic.mac1609_4 ReceivedUnicastPackets 0
scalar World.node[65].nic.mac1609_4 ReceivedBroadcasts 7798
scalar World.node[65].nic.mac1609_4 SentPackets 348
scalar World.node[65].nic.mac1609_4 SentAcknowledgements 0
scalar World.node[65].nic.mac1609_4 RetriesExceeded 0
scalar World.node[65].nic.mac1609_4 SNIRLostPackets 0
scalar World.node[65].nic.mac1609_4 RXTXLostPackets 0
scalar World.node[65].nic.mac1609_4 TotalLostPackets 0
scalar World.node[65].nic.mac1609_4 DroppedPacketsInMac 0
scalar World.node[65].nic.mac1609_4 TooLittleTime 0
scalar World.node[65].nic.mac1609_4 TimesIntoBackoff 348
scalar World.node[65].nic.mac1609_4 SlotsBackoff 2630
[...]
attr source org_car2x_veins_modules_mac_sigSentAck
scalar World.node[99].nic.mac1609_4 sentPackets:count 468
attr source org_car2x_veins_modules_mac_sigSentPacket
scalar World.node[99].nic.mac1609_4 collisions:count 0
attr source org_car2x_veins_modules_mac_sigCollision
scalar World.node[99].nic.mac1609_4 channelBusy:timeavg 0.089233155434146
attr source org_car2x_veins_modules_mac_sigChannelBusy
scalar World.node[100].appl.middleware.DenService transmission:count 160
attr source DenmSent
scalar World.node[100].appl.middleware.DenService reception:count 10418
attr source DenmReceived
scalar World.node[100].nic.phy80211p busyTime 0.085126931068458
scalar World.node[100].nic.mac1609_4 ReceivedUnicastPackets 0
scalar World.node[100].nic.mac1609_4 ReceivedBroadcasts 10907
scalar World.node[100].nic.mac1609_4 SentPackets 434
scalar World.node[100].nic.mac1609_4 SentAcknowledgements 0
scalar World.node[100].nic.mac1609_4 RetriesExceeded 0
scalar World.node[100].nic.mac1609_4 SNIRLostPackets 20
scalar World.node[100].nic.mac1609_4 RXTXLostPackets 0
scalar World.node[100].nic.mac1609_4 TotalLostPackets 20
scalar World.node[100].nic.mac1609_4 DroppedPacketsInMac 0
scalar World.node[100].nic.mac1609_4 TooLittleTime 0
scalar World.node[100].nic.mac1609_4 TimesIntoBackoff 434
scalar World.node[100].nic.mac1609_4 SlotsBackoff 2145
scalar World.node[100].nic.mac1609_4 NumInternalContention 0
scalar World.node[100].nic.mac1609_4 totalBusyTime 2.310322
scalar World.node[100].nic.mac1609_4 retriesExceeded:count 0
attr source org_car2x_veins_modules_mac_sigRetriesExceeded
scalar World.node[100].nic.mac1609_4 sentAcks:count 0
attr source org_car2x_veins_modules_mac_sigSentAck
scalar World.node[100].nic.mac1609_4 sentPackets:count 434
attr source org_car2x_veins_modules_mac_sigSentPacket
scalar World.node[100].nic.mac1609_4 collisions:count 0
attr source org_car2x_veins_modules_mac_sigCollision
scalar World.node[100].nic.mac1609_4 channelBusy:timeavg 0.088521146910146
attr source org_car2x_veins_modules_mac_sigChannelBusy
scalar World.node[101].appl.middleware.DenService transmission:count 140
attr source DenmSent
scalar World.node[101].appl.middleware.DenService reception:count 9591
attr source DenmReceived
scalar World.node[101].nic.phy80211p busyTime 0.084343151893166
scalar World.node[101].nic.mac1609_4 ReceivedUnicastPackets 0
scalar World.node[101].nic.mac1609_4 ReceivedBroadcasts 9999
scalar World.node[101].nic.mac1609_4 SentPackets 401
scalar World.node[101].nic.mac1609_4 SentAcknowledgements 0
scalar World.node[101].nic.mac1609_4 RetriesExceeded 0
scalar World.node[101].nic.mac1609_4 SNIRLostPackets 0
scalar World.node[101].nic.mac1609_4 RXTXLostPackets 9
scalar World.node[101].nic.mac1609_4 TotalLostPackets 9
scalar World.node[101].nic.mac1609_4 DroppedPacketsInMac 0
scalar World.node[101].nic.mac1609_4 TooLittleTime 0
scalar World.node[101].nic.mac1609_4 TimesIntoBackoff 682
scalar World.node[101].nic.mac1609_4 SlotsBackoff 3539
scalar World.node[101].nic.mac1609_4 NumInternalContention 0
scalar World.node[101].nic.mac1609_4 totalBusyTime 2.115825902432
scalar World.node[101].nic.mac1609_4 retriesExceeded:count 0
attr source org_car2x_veins_modules_mac_sigRetriesExceeded
scalar World.node[101].nic.mac1609_4 sentAcks:count 0
attr source org_car2x_veins_modules_mac_sigSentAck
scalar World.node[101].nic.mac1609_4 sentPackets:count 401
attr source org_car2x_veins_modules_mac_sigSentPacket
scalar World.node[101].nic.mac1609_4 collisions:count 0
attr source org_car2x_veins_modules_mac_sigCollision
scalar World.node[101].nic.mac1609_4 channelBusy:timeavg 0.087796974262077
attr source org_car2x_veins_modules_mac_sigChannelBusy
scalar World.node[102].appl.middleware.DenService transmission:count 100
attr source DenmSent
scalar World.node[102].appl.middleware.DenService reception:count 7932
attr source DenmReceived
scalar World.node[102].nic.phy80211p busyTime 0.083082968383308
scalar World.node[102].nic.mac1609_4 ReceivedUnicastPackets 0
scalar World.node[102].nic.mac1609_4 ReceivedBroadcasts 8230
scalar World.node[102].nic.mac1609_4 SentPackets 334
scalar World.node[102].nic.mac1609_4 SentAcknowledgements 0
scalar World.node[102].nic.mac1609_4 RetriesExceeded 0
scalar World.node[102].nic.mac1609_4 SNIRLostPackets 8
scalar World.node[102].nic.mac1609_4 RXTXLostPackets 0
scalar World.node[102].nic.mac1609_4 TotalLostPackets 8
scalar World.node[102].nic.mac1609_4 DroppedPacketsInMac 0
scalar World.node[102].nic.mac1609_4 TooLittleTime 0
scalar World.node[102].nic.mac1609_4 TimesIntoBackoff 334
scalar World.node[102].nic.mac1609_4 SlotsBackoff 1903
scalar World.node[102].nic.mac1609_4 NumInternalContention 0
scalar World.node[102].nic.mac1609_4 totalBusyTime 1.739686
scalar World.node[102].nic.mac1609_4 retriesExceeded:count 0
attr source org_car2x_veins_modules_mac_sigRetriesExceeded
scalar World.node[102].nic.mac1609_4 sentAcks:count 0
attr source org_car2x_veins_modules_mac_sigSentAck
scalar World.node[102].nic.mac1609_4 sentPackets:count 334
attr source org_car2x_veins_modules_mac_sigSentPacket
scalar World.node[102].nic.mac1609_4 collisions:count 0
attr source org_car2x_veins_modules_mac_sigCollision
scalar World.node[102].nic.mac1609_4 channelBusy:timeavg 0.086555624187552
attr source org_car2x_veins_modules_mac_sigChannelBusy
scalar World.node[103].appl.middleware.DenService transmission:count 60
attr source DenmSent
scalar World.node[103].appl.middleware.DenService reception:count 6364
attr source DenmReceived
scalar World.node[103].nic.phy80211p busyTime 0.081991623608624
scalar World.node[103].nic.mac1609_4 ReceivedUnicastPackets 0
scalar World.node[103].nic.mac1609_4 ReceivedBroadcasts 6528
scalar World.node[103].nic.mac1609_4 SentPackets 267
scalar World.node[103].nic.mac1609_4 SentAcknowledgements 0
scalar World.node[103].nic.mac1609_4 RetriesExceeded 0
scalar World.node[103].nic.mac1609_4 SNIRLostPackets 0
scalar World.node[103].nic.mac1609_4 RXTXLostPackets 0
scalar World.node[103].nic.mac1609_4 TotalLostPackets 0
scalar World.node[103].nic.mac1609_4 DroppedPacketsInMac 0
scalar World.node[103].nic.mac1609_4 TooLittleTime 0
scalar World.node[103].nic.mac1609_4 TimesIntoBackoff 535
scalar World.node[103].nic.mac1609_4 SlotsBackoff 3311
scalar World.node[103].nic.mac1609_4 NumInternalContention 0
scalar World.node[103].nic.mac1609_4 totalBusyTime 1.377219
scalar World.node[103].nic.mac1609_4 retriesExceeded:count 0
attr source org_car2x_veins_modules_mac_sigRetriesExceeded
scalar World.node[103].nic.mac1609_4 sentAcks:count 0
attr source org_car2x_veins_modules_mac_sigSentAck
scalar World.node[103].nic.mac1609_4 sentPackets:count 267
attr source org_car2x_veins_modules_mac_sigSentPacket
scalar World.node[103].nic.mac1609_4 collisions:count 0
attr source org_car2x_veins_modules_mac_sigCollision
scalar World.node[103].nic.mac1609_4 channelBusy:timeavg 0.085546773064873
attr source org_car2x_veins_modules_mac_sigChannelBusy
scalar World.node[104].appl.middleware.DenService transmission:count 40
attr source DenmSent
scalar World.node[104].appl.middleware.DenService reception:count 5549
attr source DenmReceived
scalar World.node[104].nic.phy80211p busyTime 0.081547924824023
scalar World.node[104].nic.mac1609_4 ReceivedUnicastPackets 0
scalar World.node[104].nic.mac1609_4 ReceivedBroadcasts 5694
scalar World.node[104].nic.mac1609_4 SentPackets 234
scalar World.node[104].nic.mac1609_4 SentAcknowledgements 0
scalar World.node[104].nic.mac1609_4 RetriesExceeded 0
scalar World.node[104].nic.mac1609_4 SNIRLostPackets 0
scalar World.node[104].nic.mac1609_4 RXTXLostPackets 0
scalar World.node[104].nic.mac1609_4 TotalLostPackets 0
scalar World.node[104].nic.mac1609_4 DroppedPacketsInMac 0
scalar World.node[104].nic.mac1609_4 TooLittleTime 0
scalar World.node[104].nic.mac1609_4 TimesIntoBackoff 234
scalar World.node[104].nic.mac1609_4 SlotsBackoff 1402
scalar World.node[104].nic.mac1609_4 NumInternalContention 0
scalar World.node[104].nic.mac1609_4 totalBusyTime 1.199946
scalar World.node[104].nic.mac1609_4 retriesExceeded:count 0
attr source org_car2x_veins_modules_mac_sigRetriesExceeded
scalar World.node[104].nic.mac1609_4 sentAcks:count 0
attr source org_car2x_veins_modules_mac_sigSentAck
scalar World.node[104].nic.mac1609_4 sentPackets:count 234
attr source org_car2x_veins_modules_mac_sigSentPacket
scalar World.node[104].nic.mac1609_4 collisions:count 0
attr source org_car2x_veins_modules_mac_sigCollision
scalar World.node[104].nic.mac1609_4 channelBusy:timeavg 0.085108521342939
attr source org_car2x_veins_modules_mac_sigChannelBusy
scalar World.node[105].appl.middleware.DenService transmission:count 0
attr source DenmSent
scalar World.node[105].appl.middleware.DenService reception:count 2456
attr source DenmReceived
scalar World.node[105].nic.phy80211p busyTime 0.082194240351351
scalar World.node[105].nic.mac1609_4 ReceivedUnicastPackets 0
scalar World.node[105].nic.mac1609_4 ReceivedBroadcasts 2496
scalar World.node[105].nic.mac1609_4 SentPackets 101
scalar World.node[105].nic.mac1609_4 SentAcknowledgements 0
scalar World.node[105].nic.mac1609_4 RetriesExceeded 0
scalar World.node[105].nic.mac1609_4 SNIRLostPackets 0
scalar World.node[105].nic.mac1609_4 RXTXLostPackets 0
scalar World.node[105].nic.mac1609_4 TotalLostPackets 0
scalar World.node[105].nic.mac1609_4 DroppedPacketsInMac 0
scalar World.node[105].nic.mac1609_4 TooLittleTime 0
scalar World.node[105].nic.mac1609_4 TimesIntoBackoff 101
scalar World.node[105].nic.mac1609_4 SlotsBackoff 790
scalar World.node[105].nic.mac1609_4 NumInternalContention 0
scalar World.node[105].nic.mac1609_4 totalBusyTime 0.523581
scalar World.node[105].nic.mac1609_4 retriesExceeded:count 0
attr source org_car2x_veins_modules_mac_sigRetriesExceeded
scalar World.node[105].nic.mac1609_4 sentAcks:count 0
attr source org_car2x_veins_modules_mac_sigSentAck
scalar World.node[105].nic.mac1609_4 sentPackets:count 101
attr source org_car2x_veins_modules_mac_sigSentPacket
scalar World.node[105].nic.mac1609_4 collisions:count 0
attr source org_car2x_veins_modules_mac_sigCollision
scalar World.node[105].nic.mac1609_4 channelBusy:timeavg 0.085846647887601
attr source org_car2x_veins_modules_mac_sigChannelBusy
scalar World.node[106].appl.middleware.DenService transmission:count 0
attr source DenmSent
scalar World.node[106].appl.middleware.DenService reception:count 1672
attr source DenmReceived
scalar World.node[106].nic.phy80211p busyTime 0.083059438126736
scalar World.node[106].nic.mac1609_4 ReceivedUnicastPackets 0
scalar World.node[106].nic.mac1609_4 ReceivedBroadcasts 1695
scalar World.node[106].nic.mac1609_4 SentPackets 68
scalar World.node[106].nic.mac1609_4 SentAcknowledgements 0
scalar World.node[106].nic.mac1609_4 RetriesExceeded 0
scalar World.node[106].nic.mac1609_4 SNIRLostPackets 0
scalar World.node[106].nic.mac1609_4 RXTXLostPackets 0
scalar World.node[106].nic.mac1609_4 TotalLostPackets 0
scalar World.node[106].nic.mac1609_4 DroppedPacketsInMac 0
scalar World.node[106].nic.mac1609_4 TooLittleTime 0
scalar World.node[106].nic.mac1609_4 TimesIntoBackoff 68
scalar World.node[106].nic.mac1609_4 SlotsBackoff 534
scalar World.node[106].nic.mac1609_4 NumInternalContention 0
scalar World.node[106].nic.mac1609_4 totalBusyTime 0.355172
scalar World.node[106].nic.mac1609_4 retriesExceeded:count 0
attr source org_car2x_veins_modules_mac_sigRetriesExceeded
scalar World.node[106].nic.mac1609_4 sentAcks:count 0
attr source org_car2x_veins_modules_mac_sigSentAck
scalar World.node[106].nic.mac1609_4 sentPackets:count 68
attr source org_car2x_veins_modules_mac_sigSentPacket
scalar World.node[106].nic.mac1609_4 collisions:count 0
attr source org_car2x_veins_modules_mac_sigCollision
scalar World.node[106].nic.mac1609_4 channelBusy:timeavg 0.086647339768877
attr source org_car2x_veins_modules_mac_sigChannelBusy
scalar World.node[41].appl.middleware.DenService transmission:count 1390
attr source DenmSent
scalar World.node[41].appl.middleware.DenService reception:count 64428
attr source DenmReceived
scalar World.node[41].nic.phy80211p busyTime 0.078486469644231
scalar World.node[41].nic.mac1609_4 ReceivedUnicastPackets 0
scalar World.node[41].nic.mac1609_4 ReceivedBroadcasts 72148
scalar World.node[41].nic.mac1609_4 SentPackets 3168
scalar World.node[41].nic.mac1609_4 SentAcknowledgements 0
scalar World.node[41].nic.mac1609_4 RetriesExceeded 0
scalar World.node[41].nic.mac1609_4 SNIRLostPackets 38
scalar World.node[41].nic.mac1609_4 RXTXLostPackets 0
scalar World.node[41].nic.mac1609_4 TotalLostPackets 38
scalar World.node[41].nic.mac1609_4 DroppedPacketsInMac 0
scalar World.node[41].nic.mac1609_4 TooLittleTime 0
scalar World.node[41].nic.mac1609_4 TimesIntoBackoff 3170
scalar World.node[41].nic.mac1609_4 SlotsBackoff 11907
scalar World.node[41].nic.mac1609_4 NumInternalContention 0
scalar World.node[41].nic.mac1609_4 totalBusyTime 15.556088482228
scalar World.node[41].nic.mac1609_4 retriesExceeded:count 0
attr source org_car2x_veins_modules_mac_sigRetriesExceeded
scalar World.node[41].nic.mac1609_4 sentAcks:count 0
attr source org_car2x_veins_modules_mac_sigSentAck
scalar World.node[41].nic.mac1609_4 sentPackets:count 3168
attr source org_car2x_veins_modules_mac_sigSentPacket
scalar World.node[41].nic.mac1609_4 collisions:count 0
attr source org_car2x_veins_modules_mac_sigCollision
scalar World.node[41].nic.mac1609_4 channelBusy:timeavg 0.081830498896231
attr source org_car2x_veins_modules_mac_sigChannelBusy
scalar World.node[55].appl.middleware.DenService transmission:count 1100
attr source DenmSent
scalar World.node[55].appl.middleware.DenService reception:count 50658
attr source DenmReceived
scalar World.node[55].nic.phy80211p busyTime 0.078298135469816
scalar World.node[55].nic.mac1609_4 ReceivedUnicastPackets 0
scalar World.node[55].nic.mac1609_4 ReceivedBroadcasts 56809
scalar World.node[55].nic.mac1609_4 SentPackets 2501
scalar World.node[55].nic.mac1609_4 SentAcknowledgements 0
scalar World.node[55].nic.mac1609_4 RetriesExceeded 0
scalar World.node[55].nic.mac1609_4 SNIRLostPackets 32
scalar World.node[55].nic.mac1609_4 RXTXLostPackets 0
scalar World.node[55].nic.mac1609_4 TotalLostPackets 32
scalar World.node[55].nic.mac1609_4 DroppedPacketsInMac 0
scalar World.node[55].nic.mac1609_4 TooLittleTime 0
scalar World.node[55].nic.mac1609_4 TimesIntoBackoff 2602
scalar World.node[55].nic.mac1609_4 SlotsBackoff 9745
scalar World.node[55].nic.mac1609_4 NumInternalContention 0
scalar World.node[55].nic.mac1609_4 totalBusyTime 12.254789128167
scalar World.node[55].nic.mac1609_4 retriesExceeded:count 0
attr source org_car2x_veins_modules_mac_sigRetriesExceeded
scalar World.node[55].nic.mac1609_4 sentAcks:count 0
attr source org_car2x_veins_modules_mac_sigSentAck
scalar World.node[55].nic.mac1609_4 sentPackets:count 2501
attr source org_car2x_veins_modules_mac_sigSentPacket
scalar World.node[55].nic.mac1609_4 collisions:count 0
attr source org_car2x_veins_modules_mac_sigCollision
scalar World.node[55].nic.mac1609_4 channelBusy:timeavg 0.081644759294225
attr source org_car2x_veins_modules_mac_sigChannelBusy
scalar World.node[57].appl.middleware.DenService transmission:count 690
attr source DenmSent
scalar World.node[57].appl.middleware.DenService reception:count 48001
attr source DenmReceived
scalar World.node[57].nic.phy80211p busyTime 0.078246574269782
scalar World.node[57].nic.mac1609_4 ReceivedUnicastPackets 0
scalar World.node[57].nic.mac1609_4 ReceivedBroadcasts 53732
scalar World.node[57].nic.mac1609_4 SentPackets 2369
scalar World.node[57].nic.mac1609_4 SentAcknowledgements 0
scalar World.node[57].nic.mac1609_4 RetriesExceeded 0
scalar World.node[57].nic.mac1609_4 SNIRLostPackets 39
scalar World.node[57].nic.mac1609_4 RXTXLostPackets 1
scalar World.node[57].nic.mac1609_4 TotalLostPackets 40
scalar World.node[57].nic.mac1609_4 DroppedPacketsInMac 0
scalar World.node[57].nic.mac1609_4 TooLittleTime 0
scalar World.node[57].nic.mac1609_4 TimesIntoBackoff 2616
scalar World.node[57].nic.mac1609_4 SlotsBackoff 10432
scalar World.node[57].nic.mac1609_4 NumInternalContention 0
scalar World.node[57].nic.mac1609_4 totalBusyTime 11.594449
scalar World.node[57].nic.mac1609_4 retriesExceeded:count 0
attr source org_car2x_veins_modules_mac_sigRetriesExceeded
scalar World.node[57].nic.mac1609_4 sentAcks:count 0
attr source org_car2x_veins_modules_mac_sigSentAck
scalar World.node[57].nic.mac1609_4 sentPackets:count 2369
attr source org_car2x_veins_modules_mac_sigSentPacket
scalar World.node[57].nic.mac1609_4 collisions:count 0
attr source org_car2x_veins_modules_mac_sigCollision
scalar World.node[57].nic.mac1609_4 channelBusy:timeavg 0.081594218865444
attr source org_car2x_veins_modules_mac_sigChannelBusy
scalar World.node[62].appl.middleware.DenService transmission:count 1100
attr source DenmSent
scalar World.node[62].appl.middleware.DenService reception:count 41694
attr source DenmReceived
scalar World.node[62].nic.phy80211p busyTime 0.079089867306687
scalar World.node[62].nic.mac1609_4 ReceivedUnicastPackets 0
scalar World.node[62].nic.mac1609_4 ReceivedBroadcasts 45956
scalar World.node[62].nic.mac1609_4 SentPackets 2001
scalar World.node[62].nic.mac1609_4 SentAcknowledgements 0
scalar World.node[62].nic.mac1609_4 RetriesExceeded 0
scalar World.node[62].nic.mac1609_4 SNIRLostPackets 30
scalar World.node[62].nic.mac1609_4 RXTXLostPackets 5
scalar World.node[62].nic.mac1609_4 TotalLostPackets 35
scalar World.node[62].nic.mac1609_4 DroppedPacketsInMac 0
scalar World.node[62].nic.mac1609_4 TooLittleTime 0
scalar World.node[62].nic.mac1609_4 TimesIntoBackoff 2137
scalar World.node[62].nic.mac1609_4 SlotsBackoff 8110
scalar World.node[62].nic.mac1609_4 NumInternalContention 0
scalar World.node[62].nic.mac1609_4 totalBusyTime 9.901801038758
scalar World.node[62].nic.mac1609_4 retriesExceeded:count 0
attr source org_car2x_veins_modules_mac_sigRetriesExceeded
scalar World.node[62].nic.mac1609_4 sentAcks:count 0
attr source org_car2x_veins_modules_mac_sigSentAck
scalar World.node[62].nic.mac1609_4 sentPackets:count 2001
attr source org_car2x_veins_modules_mac_sigSentPacket
scalar World.node[62].nic.mac1609_4 collisions:count 0
attr source org_car2x_veins_modules_mac_sigCollision
scalar World.node[62].nic.mac1609_4 channelBusy:timeavg 0.082447033298016
attr source org_car2x_veins_modules_mac_sigChannelBusy
scalar World.node[69].appl.middleware.DenService transmission:count 460
attr source DenmSent
scalar World.node[69].appl.middleware.DenService reception:count 35514
attr source DenmReceived
scalar World.node[69].nic.phy80211p busyTime 0.080343130559583
scalar World.node[69].nic.mac1609_4 ReceivedUnicastPackets 0
scalar World.node[69].nic.mac1609_4 ReceivedBroadcasts 38995
scalar World.node[69].nic.mac1609_4 SentPackets 1668
scalar World.node[69].nic.mac1609_4 SentAcknowledgements 0
scalar World.node[69].nic.mac1609_4 RetriesExceeded 0
scalar World.node[69].nic.mac1609_4 SNIRLostPackets 30
scalar World.node[69].nic.mac1609_4 RXTXLostPackets 0
scalar World.node[69].nic.mac1609_4 TotalLostPackets 30
scalar World.node[69].nic.mac1609_4 DroppedPacketsInMac 0
scalar World.node[69].nic.mac1609_4 TooLittleTime 0
scalar World.node[69].nic.mac1609_4 TimesIntoBackoff 1668
scalar World.node[69].nic.mac1609_4 SlotsBackoff 6494
scalar World.node[69].nic.mac1609_4 NumInternalContention 0
scalar World.node[69].nic.mac1609_4 totalBusyTime 8.377724532783
scalar World.node[69].nic.mac1609_4 retriesExceeded:count 0
attr source org_car2x_veins_modules_mac_sigRetriesExceeded
scalar World.node[69].nic.mac1609_4 sentAcks:count 0
attr source org_car2x_veins_modules_mac_sigSentAck
scalar World.node[69].nic.mac1609_4 sentPackets:count 1668
attr source org_car2x_veins_modules_mac_sigSentPacket
scalar World.node[69].nic.mac1609_4 collisions:count 0
attr source org_car2x_veins_modules_mac_sigCollision
scalar World.node[69].nic.mac1609_4 channelBusy:timeavg 0.083694418523529
attr source org_car2x_veins_modules_mac_sigChannelBusy

