version 2
run veins-0-20250125-19:03:22-111119
attr configname veins
attr datetime 20250125-19:03:22
attr experiment veins
attr inifile omnetpp.ini
attr iterationvars ""
attr iterationvarsf ""
attr measurement ""
attr network artery.veins.World
attr processid 111119
attr repetition 0
attr replication #0
attr resultdir results
attr runnumber 0
attr seedset 0
param *.playgroundSizeX 2000m
param *.playgroundSizeY 1200m
param *.playgroundSizeZ 50m
param *.connectionManager.maxInterfDist 500m
param *.connectionManager.sendDirect true
param *.connectionManager.coreDebug false
param *.node[*].nic.mac1609_4.txPower 200mW
param *.node[*].nic.phy80211p.decider "xmldoc(\"config.xml\")"
param *.node[*].nic.phy80211p.analogueModels "xmldoc(\"config.xml\")"
param *.node[*].appl.middleware.updateInterval 0.1s
param *.node[*].appl.middleware.datetime "\"2025-03-10 12:00:00\""
param *.node[*].appl.middleware.services "xmldoc(\"services.xml\")"
param *.node[*].appl.middleware.DenService.useCases "xmldoc(\"den-use-cases.xml\")"
param *.withStoryboard true
param *.storyboard.python "\"demo\""
param *.traci.launcher.additionalOptions "\"--log-buffered --log-file=sumo_warnings.log\""
param *.traci.core.version -1
param *.traci.launcher.typename "\"PosixLauncher\""
param *.traci.launcher.sumocfg "\"Slott.sumo.cfg\""
param *.traci.launcher.sumo "\"sumo\""
param *.node[*].wlan[*].typename "\"VanetNic\""
param *.node[*].wlan[*].radio.channelNumber 180
param *.node[*].wlan[*].radio.carrierFrequency "5.9 GHz"
param *.node[*].wlan[*].radio.transmitter.power "200 mW"
param *.node[*].middleware.updateInterval 0.1s
param *.node[*].middleware.datetime "\"2025-03-10 12:00:00\""
param *.node[*].middleware.services "xmldoc(\"services.xml\")"
param *.node[*].middleware.DenService.useCases "xmldoc(\"den-use-cases.xml\")"

scalar World.traci.launcher port 49573
scalar World.node[4].appl.middleware.DenService transmission:count 107
attr source DenmSent
scalar World.node[4].appl.middleware.DenService reception:count 2116
attr source DenmReceived
scalar World.node[4].nic.phy80211p busyTime 0.02854346153846
scalar World.node[4].nic.mac1609_4 ReceivedUnicastPackets 0
scalar World.node[4].nic.mac1609_4 ReceivedBroadcasts 2766
scalar World.node[4].nic.mac1609_4 SentPackets 287
scalar World.node[4].nic.mac1609_4 SentAcknowledgements 0
scalar World.node[4].nic.mac1609_4 RetriesExceeded 0
scalar World.node[4].nic.mac1609_4 SNIRLostPackets 0
scalar World.node[4].nic.mac1609_4 RXTXLostPackets 0
scalar World.node[4].nic.mac1609_4 TotalLostPackets 0
scalar World.node[4].nic.mac1609_4 DroppedPacketsInMac 0
scalar World.node[4].nic.mac1609_4 TooLittleTime 0
scalar World.node[4].nic.mac1609_4 TimesIntoBackoff 287
scalar World.node[4].nic.mac1609_4 SlotsBackoff 1473
scalar World.node[4].nic.mac1609_4 NumInternalContention 0
scalar World.node[4].nic.mac1609_4 totalBusyTime 0.654303
scalar World.node[4].nic.mac1609_4 retriesExceeded:count 0
attr source org_car2x_veins_modules_mac_sigRetriesExceeded
scalar World.node[4].nic.mac1609_4 sentAcks:count 0
attr source org_car2x_veins_modules_mac_sigSentAck
scalar World.node[4].nic.mac1609_4 sentPackets:count 287
attr source org_car2x_veins_modules_mac_sigSentPacket
scalar World.node[4].nic.mac1609_4 collisions:count 0
attr source org_car2x_veins_modules_mac_sigCollision
scalar World.node[4].nic.mac1609_4 channelBusy:timeavg 0.031456874999999
attr source org_car2x_veins_modules_mac_sigChannelBusy
scalar World.node[12].appl.middleware.DenService transmission:count 12
attr source DenmSent
scalar World.node[12].appl.middleware.DenService reception:count 2279
attr source DenmReceived
scalar World.node[12].nic.phy80211p busyTime 0.047635398230086
scalar World.node[12].nic.mac1609_4 ReceivedUnicastPackets 0
scalar World.node[12].nic.mac1609_4 ReceivedBroadcasts 2562
scalar World.node[12].nic.mac1609_4 SentPackets 188
scalar World.node[12].nic.mac1609_4 SentAcknowledgements 0
scalar World.node[12].nic.mac1609_4 RetriesExceeded 0
scalar World.node[12].nic.mac1609_4 SNIRLostPackets 0
scalar World.node[12].nic.mac1609_4 RXTXLostPackets 0
scalar World.node[12].nic.mac1609_4 TotalLostPackets 0
scalar World.node[12].nic.mac1609_4 DroppedPacketsInMac 0
scalar World.node[12].nic.mac1609_4 TooLittleTime 0
scalar World.node[12].nic.mac1609_4 TimesIntoBackoff 188
scalar World.node[12].nic.mac1609_4 SlotsBackoff 1290
scalar World.node[12].nic.mac1609_4 NumInternalContention 0
scalar World.node[12].nic.mac1609_4 totalBusyTime 0.578612
scalar World.node[12].nic.mac1609_4 retriesExceeded:count 0
attr source org_car2x_veins_modules_mac_sigRetriesExceeded
scalar World.node[12].nic.mac1609_4 sentAcks:count 0
attr source org_car2x_veins_modules_mac_sigSentAck
scalar World.node[12].nic.mac1609_4 sentPackets:count 188
attr source org_car2x_veins_modules_mac_sigSentPacket
scalar World.node[12].nic.mac1609_4 collisions:count 0
attr source org_car2x_veins_modules_mac_sigCollision
scalar World.node[12].nic.mac1609_4 channelBusy:timeavg 0.051204601769909
attr source org_car2x_veins_modules_mac_sigChannelBusy
scalar World.node[13].appl.middleware.DenService transmission:count 50
attr source DenmSent
scalar World.node[13].appl.middleware.DenService reception:count 3202
attr source DenmReceived
scalar World.node[13].nic.phy80211p busyTime 0.051863311258275
scalar World.node[13].nic.mac1609_4 ReceivedUnicastPackets 0
scalar World.node[13].nic.mac1609_4 ReceivedBroadcasts 3729
scalar World.node[13].nic.mac1609_4 SentPackets 251
scalar World.node[13].nic.mac1609_4 SentAcknowledgements 0
scalar World.node[13].nic.mac1609_4 RetriesExceeded 0
scalar World.node[13].nic.mac1609_4 SNIRLostPackets 0
scalar World.node[13].nic.mac1609_4 RXTXLostPackets 0
scalar World.node[13].nic.mac1609_4 TotalLostPackets 0
scalar World.node[13].nic.mac1609_4 DroppedPacketsInMac 0
scalar World.node[13].nic.mac1609_4 TooLittleTime 0
scalar World.node[13].nic.mac1609_4 TimesIntoBackoff 271
scalar World.node[13].nic.mac1609_4 SlotsBackoff 1649
scalar World.node[13].nic.mac1609_4 NumInternalContention 0
scalar World.node[13].nic.mac1609_4 totalBusyTime 0.837731
scalar World.node[13].nic.mac1609_4 retriesExceeded:count 0
attr source org_car2x_veins_modules_mac_sigRetriesExceeded
scalar World.node[13].nic.mac1609_4 sentAcks:count 0
attr source org_car2x_veins_modules_mac_sigSentAck
scalar World.node[13].nic.mac1609_4 sentPackets:count 251
attr source org_car2x_veins_modules_mac_sigSentPacket
scalar World.node[13].nic.mac1609_4 collisions:count 0
attr source org_car2x_veins_modules_mac_sigCollision
scalar World.node[13].nic.mac1609_4 channelBusy:timeavg 0.055478874172182
attr source org_car2x_veins_modules_mac_sigChannelBusy
scalar World.node[14].appl.middleware.DenService transmission:count 100
attr source DenmSent
scalar World.node[14].appl.middleware.DenService reception:count 5611
attr source DenmReceived
scalar World.node[14].nic.phy80211p busyTime 0.059518571428567
scalar World.node[14].nic.mac1609_4 ReceivedUnicastPackets 0
scalar World.node[14].nic.mac1609_4 ReceivedBroadcasts 6357
scalar World.node[14].nic.mac1609_4 SentPackets 372
scalar World.node[14].nic.mac1609_4 SentAcknowledgements 0
scalar World.node[14].nic.mac1609_4 RetriesExceeded 0
scalar World.node[14].nic.mac1609_4 SNIRLostPackets 0
scalar World.node[14].nic.mac1609_4 RXTXLostPackets 0
scalar World.node[14].nic.mac1609_4 TotalLostPackets 0
scalar World.node[14].nic.mac1609_4 DroppedPacketsInMac 0
scalar World.node[14].nic.mac1609_4 TooLittleTime 0
scalar World.node[14].nic.mac1609_4 TimesIntoBackoff 372
scalar World.node[14].nic.mac1609_4 SlotsBackoff 2050
scalar World.node[14].nic.mac1609_4 NumInternalContention 0
scalar World.node[14].nic.mac1609_4 totalBusyTime 1.411084
scalar World.node[14].nic.mac1609_4 retriesExceeded:count 0
attr source org_car2x_veins_modules_mac_sigRetriesExceeded
scalar World.node[14].nic.mac1609_4 sentAcks:count 0
attr source org_car2x_veins_modules_mac_sigSentAck
scalar World.node[14].nic.mac1609_4 sentPackets:count 372
attr source org_car2x_veins_modules_mac_sigSentPacket
scalar World.node[14].nic.mac1609_4 collisions:count 0
attr source org_car2x_veins_modules_mac_sigCollision
scalar World.node[14].nic.mac1609_4 channelBusy:timeavg 0.062994821428566
attr source org_car2x_veins_modules_mac_sigChannelBusy
scalar World.node[5].appl.middleware.DenService transmission:count 180
attr source DenmSent
scalar World.node[5].appl.middleware.DenService reception:count 7345
attr source DenmReceived
scalar World.node[5].nic.phy80211p busyTime 0.046620098522163
scalar World.node[5].nic.mac1609_4 ReceivedUnicastPackets 0
scalar World.node[5].nic.mac1609_4 ReceivedBroadcasts 8965
scalar World.node[5].nic.mac1609_4 SentPackets 651
scalar World.node[5].nic.mac1609_4 SentAcknowledgements 0
scalar World.node[5].nic.mac1609_4 RetriesExceeded 0
scalar World.node[5].nic.mac1609_4 SNIRLostPackets 0
scalar World.node[5].nic.mac1609_4 RXTXLostPackets 0
scalar World.node[5].nic.mac1609_4 TotalLostPackets 0
scalar World.node[5].nic.mac1609_4 DroppedPacketsInMac 0
scalar World.node[5].nic.mac1609_4 TooLittleTime 0
scalar World.node[5].nic.mac1609_4 TimesIntoBackoff 651
scalar World.node[5].nic.mac1609_4 SlotsBackoff 2900
scalar World.node[5].nic.mac1609_4 NumInternalContention 0
scalar World.node[5].nic.mac1609_4 totalBusyTime 2.027491
scalar World.node[5].nic.mac1609_4 retriesExceeded:count 0
attr source org_car2x_veins_modules_mac_sigRetriesExceeded
scalar World.node[5].nic.mac1609_4 sentAcks:count 0
attr source org_car2x_veins_modules_mac_sigSentAck
scalar World.node[5].nic.mac1609_4 sentPackets:count 651
attr source org_car2x_veins_modules_mac_sigSentPacket
scalar World.node[5].nic.mac1609_4 collisions:count 0
attr source org_car2x_veins_modules_mac_sigCollision
scalar World.node[5].nic.mac1609_4 channelBusy:timeavg 0.049938201970439
attr source org_car2x_veins_modules_mac_sigChannelBusy
scalar World.node[19].appl.middleware.DenService transmission:count 33
attr source DenmSent
scalar World.node[19].appl.middleware.DenService reception:count 3848
attr source DenmReceived
scalar World.node[19].nic.phy80211p busyTime 0.065929552238802
scalar World.node[19].nic.mac1609_4 ReceivedUnicastPackets 0
scalar World.node[19].nic.mac1609_4 ReceivedBroadcasts 4231
scalar World.node[19].nic.mac1609_4 SentPackets 222
scalar World.node[19].nic.mac1609_4 SentAcknowledgements 0
scalar World.node[19].nic.mac1609_4 RetriesExceeded 0
scalar World.node[19].nic.mac1609_4 SNIRLostPackets 0
scalar World.node[19].nic.mac1609_4 RXTXLostPackets 0
scalar World.node[19].nic.mac1609_4 TotalLostPackets 0
scalar World.node[19].nic.mac1609_4 DroppedPacketsInMac 0
scalar World.node[19].nic.mac1609_4 TooLittleTime 0
scalar World.node[19].nic.mac1609_4 TimesIntoBackoff 241
scalar World.node[19].nic.mac1609_4 SlotsBackoff 1507
scalar World.node[19].nic.mac1609_4 NumInternalContention 0
scalar World.node[19].nic.mac1609_4 totalBusyTime 0.930854
scalar World.node[19].nic.mac1609_4 retriesExceeded:count 0
attr source org_car2x_veins_modules_mac_sigRetriesExceeded
scalar World.node[19].nic.mac1609_4 sentAcks:count 0
attr source org_car2x_veins_modules_mac_sigSentAck
scalar World.node[19].nic.mac1609_4 sentPackets:count 222
attr source org_car2x_veins_modules_mac_sigSentPacket
scalar World.node[19].nic.mac1609_4 collisions:count 0
attr source org_car2x_veins_modules_mac_sigCollision
scalar World.node[19].nic.mac1609_4 channelBusy:timeavg 0.069466716417906
attr source org_car2x_veins_modules_mac_sigChannelBusy
scalar World.node[28].appl.middleware.DenService transmission:count 0
attr source DenmSent
scalar World.node[28].appl.middleware.DenService reception:count 723
attr source DenmReceived
scalar World.node[28].nic.phy80211p busyTime 0.075832380952382
scalar World.node[28].nic.mac1609_4 ReceivedUnicastPackets 0
scalar World.node[28].nic.mac1609_4 ReceivedBroadcasts 770
scalar World.node[28].nic.mac1609_4 SentPackets 34
scalar World.node[28].nic.mac1609_4 SentAcknowledgements 0
scalar World.node[28].nic.mac1609_4 RetriesExceeded 0
scalar World.node[28].nic.mac1609_4 SNIRLostPackets 0
scalar World.node[28].nic.mac1609_4 RXTXLostPackets 0
scalar World.node[28].nic.mac1609_4 TotalLostPackets 0
scalar World.node[28].nic.mac1609_4 DroppedPacketsInMac 0
scalar World.node[28].nic.mac1609_4 TooLittleTime 0
scalar World.node[28].nic.mac1609_4 TimesIntoBackoff 34
scalar World.node[28].nic.mac1609_4 SlotsBackoff 252
scalar World.node[28].nic.mac1609_4 NumInternalContention 0
scalar World.node[28].nic.mac1609_4 totalBusyTime 0.166618
scalar World.node[28].nic.mac1609_4 retriesExceeded:count 0
attr source org_car2x_veins_modules_mac_sigRetriesExceeded
scalar World.node[28].nic.mac1609_4 sentAcks:count 0
attr source org_car2x_veins_modules_mac_sigSentAck
scalar World.node[28].nic.mac1609_4 sentPackets:count 34
attr source org_car2x_veins_modules_mac_sigSentPacket
scalar World.node[28].nic.mac1609_4 collisions:count 0
attr source org_car2x_veins_modules_mac_sigCollision
scalar World.node[28].nic.mac1609_4 channelBusy:timeavg 0.079341904761906
attr source org_car2x_veins_modules_mac_sigChannelBusy
scalar World.node[1].appl.middleware.DenService transmission:count 310
attr source DenmSent
scalar World.node[1].appl.middleware.DenService reception:count 9690
attr source DenmReceived
scalar World.node[1].nic.phy80211p busyTime 0.044361050788088
scalar World.node[1].nic.mac1609_4 ReceivedUnicastPackets 0
scalar World.node[1].nic.mac1609_4 ReceivedBroadcasts 12003
scalar World.node[1].nic.mac1609_4 SentPackets 811
scalar World.node[1].nic.mac1609_4 SentAcknowledgements 0
scalar World.node[1].nic.mac1609_4 RetriesExceeded 0
scalar World.node[1].nic.mac1609_4 SNIRLostPackets 0
scalar World.node[1].nic.mac1609_4 RXTXLostPackets 0
scalar World.node[1].nic.mac1609_4 TotalLostPackets 0
scalar World.node[1].nic.mac1609_4 DroppedPacketsInMac 0
scalar World.node[1].nic.mac1609_4 TooLittleTime 0
scalar World.node[1].nic.mac1609_4 TimesIntoBackoff 1495
scalar World.node[1].nic.mac1609_4 SlotsBackoff 5409
scalar World.node[1].nic.mac1609_4 NumInternalContention 0
scalar World.node[1].nic.mac1609_4 totalBusyTime 2.700067
scalar World.node[1].nic.mac1609_4 retriesExceeded:count 0
attr source org_car2x_veins_modules_mac_sigRetriesExceeded
scalar World.node[1].nic.mac1609_4 sentAcks:count 0
attr source org_car2x_veins_modules_mac_sigSentAck
scalar World.node[1].nic.mac1609_4 sentPackets:count 811
attr source org_car2x_veins_modules_mac_sigSentPacket
scalar World.node[1].nic.mac1609_4 collisions:count 0
attr source org_car2x_veins_modules_mac_sigCollision
scalar World.node[1].nic.mac1609_4 channelBusy:timeavg 0.047286637478105
attr source org_car2x_veins_modules_mac_sigChannelBusy
scalar World.node[3].appl.middleware.DenService transmission:count 453
attr source DenmSent
scalar World.node[3].appl.middleware.DenService reception:count 10467
attr source DenmReceived
scalar World.node[3].nic.phy80211p busyTime 0.047478555956675
scalar World.node[3].nic.mac1609_4 ReceivedUnicastPackets 0
scalar World.node[3].nic.mac1609_4 ReceivedBroadcasts 12499
scalar World.node[3].nic.mac1609_4 SentPackets 841
scalar World.node[3].nic.mac1609_4 SentAcknowledgements 0
scalar World.node[3].nic.mac1609_4 RetriesExceeded 0
scalar World.node[3].nic.mac1609_4 SNIRLostPackets 0
scalar World.node[3].nic.mac1609_4 RXTXLostPackets 0
scalar World.node[3].nic.mac1609_4 TotalLostPackets 0
scalar World.node[3].nic.mac1609_4 DroppedPacketsInMac 0
scalar World.node[3].nic.mac1609_4 TooLittleTime 0
scalar World.node[3].nic.mac1609_4 TimesIntoBackoff 841
scalar World.node[3].nic.mac1609_4 SlotsBackoff 3224
scalar World.node[3].nic.mac1609_4 NumInternalContention 0
scalar World.node[3].nic.mac1609_4 totalBusyTime 2.803313
scalar World.node[3].nic.mac1609_4 retriesExceeded:count 0
attr source org_car2x_veins_modules_mac_sigRetriesExceeded
scalar World.node[3].nic.mac1609_4 sentAcks:count 0
attr source org_car2x_veins_modules_mac_sigSentAck
scalar World.node[3].nic.mac1609_4 sentPackets:count 841
attr source org_car2x_veins_modules_mac_sigSentPacket
scalar World.node[3].nic.mac1609_4 collisions:count 0
attr source org_car2x_veins_modules_mac_sigCollision
scalar World.node[3].nic.mac1609_4 channelBusy:timeavg 0.050601317689527
attr source org_car2x_veins_modules_mac_sigChannelBusy
scalar World.node[0].appl.middleware.DenService transmission:count 0
attr source DenmSent
scalar World.node[0].appl.middleware.DenService reception:count 11494
attr source DenmReceived
scalar World.node[0].nic.phy80211p busyTime 0.043805825242715
scalar World.node[0].nic.mac1609_4 ReceivedUnicastPackets 0
scalar World.node[0].nic.mac1609_4 ReceivedBroadcasts 12908
scalar World.node[0].nic.mac1609_4 SentPackets 877
scalar World.node[0].nic.mac1609_4 SentAcknowledgements 0
scalar World.node[0].nic.mac1609_4 RetriesExceeded 0
scalar World.node[0].nic.mac1609_4 SNIRLostPackets 0
scalar World.node[0].nic.mac1609_4 RXTXLostPackets 0
scalar World.node[0].nic.mac1609_4 TotalLostPackets 0
scalar World.node[0].nic.mac1609_4 DroppedPacketsInMac 0
scalar World.node[0].nic.mac1609_4 TooLittleTime 0
scalar World.node[0].nic.mac1609_4 TimesIntoBackoff 877
scalar World.node[0].nic.mac1609_4 SlotsBackoff 6509
scalar World.node[0].nic.mac1609_4 NumInternalContention 0
scalar World.node[0].nic.mac1609_4 totalBusyTime 2.901549
scalar World.node[0].nic.mac1609_4 retriesExceeded:count 0
attr source org_car2x_veins_modules_mac_sigRetriesExceeded
scalar World.node[0].nic.mac1609_4 sentAcks:count 0
attr source org_car2x_veins_modules_mac_sigSentAck
scalar World.node[0].nic.mac1609_4 sentPackets:count 877
attr source org_car2x_veins_modules_mac_sigSentPacket
scalar World.node[0].nic.mac1609_4 collisions:count 0
attr source org_car2x_veins_modules_mac_sigCollision
scalar World.node[0].nic.mac1609_4 channelBusy:timeavg 0.046950631067958
attr source org_car2x_veins_modules_mac_sigChannelBusy
scalar World.node[15].appl.middleware.DenService transmission:count 269
attr source DenmSent
scalar World.node[15].appl.middleware.DenService reception:count 10333
attr source DenmReceived
scalar World.node[15].nic.phy80211p busyTime 0.066476324324319
scalar World.node[15].nic.mac1609_4 ReceivedUnicastPackets 0
scalar World.node[15].nic.mac1609_4 ReceivedBroadcasts 11782
scalar World.node[15].nic.mac1609_4 SentPackets 616
scalar World.node[15].nic.mac1609_4 SentAcknowledgements 0
scalar World.node[15].nic.mac1609_4 RetriesExceeded 0
scalar World.node[15].nic.mac1609_4 SNIRLostPackets 0
scalar World.node[15].nic.mac1609_4 RXTXLostPackets 0
scalar World.node[15].nic.mac1609_4 TotalLostPackets 0
scalar World.node[15].nic.mac1609_4 DroppedPacketsInMac 0
scalar World.node[15].nic.mac1609_4 TooLittleTime 0
scalar World.node[15].nic.mac1609_4 TimesIntoBackoff 625
scalar World.node[15].nic.mac1609_4 SlotsBackoff 2908
scalar World.node[15].nic.mac1609_4 NumInternalContention 0
scalar World.node[15].nic.mac1609_4 totalBusyTime 2.58756
scalar World.node[15].nic.mac1609_4 retriesExceeded:count 0
attr source org_car2x_veins_modules_mac_sigRetriesExceeded
scalar World.node[15].nic.mac1609_4 sentAcks:count 0
attr source org_car2x_veins_modules_mac_sigSentAck
scalar World.node[15].nic.mac1609_4 sentPackets:count 616
attr source org_car2x_veins_modules_mac_sigSentPacket
scalar World.node[15].nic.mac1609_4 collisions:count 0
attr source org_car2x_veins_modules_mac_sigCollision
scalar World.node[15].nic.mac1609_4 channelBusy:timeavg 0.069934054054049
attr source org_car2x_veins_modules_mac_sigChannelBusy
scalar World.node[17].appl.middleware.DenService transmission:count 301
attr source DenmSent
scalar World.node[17].appl.middleware.DenService reception:count 12194
attr source DenmReceived
scalar World.node[17].nic.phy80211p busyTime 0.070765373134324
scalar World.node[17].nic.mac1609_4 ReceivedUnicastPackets 0
scalar World.node[17].nic.mac1609_4 ReceivedBroadcasts 13630
scalar World.node[17].nic.mac1609_4 SentPackets 669
scalar World.node[17].nic.mac1609_4 SentAcknowledgements 0
scalar World.node[17].nic.mac1609_4 RetriesExceeded 0
scalar World.node[17].nic.mac1609_4 SNIRLostPackets 0
scalar World.node[17].nic.mac1609_4 RXTXLostPackets 0
scalar World.node[17].nic.mac1609_4 TotalLostPackets 0
scalar World.node[17].nic.mac1609_4 DroppedPacketsInMac 0
scalar World.node[17].nic.mac1609_4 TooLittleTime 0
scalar World.node[17].nic.mac1609_4 TimesIntoBackoff 669
scalar World.node[17].nic.mac1609_4 SlotsBackoff 3143
scalar World.node[17].nic.mac1609_4 NumInternalContention 0
scalar World.node[17].nic.mac1609_4 totalBusyTime 2.982733
scalar World.node[17].nic.mac1609_4 retriesExceeded:count 0
attr source org_car2x_veins_modules_mac_sigRetriesExceeded
scalar World.node[17].nic.mac1609_4 sentAcks:count 0
attr source org_car2x_veins_modules_mac_sigSentAck
scalar World.node[17].nic.mac1609_4 sentPackets:count 669
attr source org_car2x_veins_modules_mac_sigSentPacket
scalar World.node[17].nic.mac1609_4 collisions:count 0
attr source org_car2x_veins_modules_mac_sigCollision
scalar World.node[17].nic.mac1609_4 channelBusy:timeavg 0.074197338308453
attr source org_car2x_veins_modules_mac_sigChannelBusy
scalar World.node[27].appl.middleware.DenService transmission:count 0
attr source DenmSent
scalar World.node[27].appl.middleware.DenService reception:count 8037
attr source DenmReceived
scalar World.node[27].nic.phy80211p busyTime 0.078581565217384
scalar World.node[27].nic.mac1609_4 ReceivedUnicastPackets 0
scalar World.node[27].nic.mac1609_4 ReceivedBroadcasts 8711
scalar World.node[27].nic.mac1609_4 SentPackets 382
scalar World.node[27].nic.mac1609_4 SentAcknowledgements 0
scalar World.node[27].nic.mac1609_4 RetriesExceeded 0
scalar World.node[27].nic.mac1609_4 SNIRLostPackets 0
scalar World.node[27].nic.mac1609_4 RXTXLostPackets 0
scalar World.node[27].nic.mac1609_4 TotalLostPackets 0
scalar World.node[27].nic.mac1609_4 DroppedPacketsInMac 0
scalar World.node[27].nic.mac1609_4 TooLittleTime 0
scalar World.node[27].nic.mac1609_4 TimesIntoBackoff 383
scalar World.node[27].nic.mac1609_4 SlotsBackoff 2846
scalar World.node[27].nic.mac1609_4 NumInternalContention 0
scalar World.node[27].nic.mac1609_4 totalBusyTime 1.890494
scalar World.node[27].nic.mac1609_4 retriesExceeded:count 0
attr source org_car2x_veins_modules_mac_sigRetriesExceeded
scalar World.node[27].nic.mac1609_4 sentAcks:count 0
attr source org_car2x_veins_modules_mac_sigSentAck
scalar World.node[27].nic.mac1609_4 sentPackets:count 382
attr source org_car2x_veins_modules_mac_sigSentPacket
scalar World.node[27].nic.mac1609_4 collisions:count 0
attr source org_car2x_veins_modules_mac_sigCollision
scalar World.node[27].nic.mac1609_4 channelBusy:timeavg 0.08219539130434
attr source org_car2x_veins_modules_mac_sigChannelBusy
scalar World.node[2].appl.middleware.DenService transmission:count 638
attr source DenmSent
scalar World.node[2].appl.middleware.DenService reception:count 16565
attr source DenmReceived
scalar World.node[2].nic.phy80211p busyTime 0.054673991880918
scalar World.node[2].nic.mac1609_4 ReceivedUnicastPackets 0
scalar World.node[2].nic.mac1609_4 ReceivedBroadcasts 19238
scalar World.node[2].nic.mac1609_4 SentPackets 1130
scalar World.node[2].nic.mac1609_4 SentAcknowledgements 0
scalar World.node[2].nic.mac1609_4 RetriesExceeded 0
scalar World.node[2].nic.mac1609_4 SNIRLostPackets 0
scalar World.node[2].nic.mac1609_4 RXTXLostPackets 0
scalar World.node[2].nic.mac1609_4 TotalLostPackets 0
scalar World.node[2].nic.mac1609_4 DroppedPacketsInMac 0
scalar World.node[2].nic.mac1609_4 TooLittleTime 0
scalar World.node[2].nic.mac1609_4 TimesIntoBackoff 1130
scalar World.node[2].nic.mac1609_4 SlotsBackoff 4204
scalar World.node[2].nic.mac1609_4 NumInternalContention 0
scalar World.node[2].nic.mac1609_4 totalBusyTime 4.271098
scalar World.node[2].nic.mac1609_4 retriesExceeded:count 0
attr source org_car2x_veins_modules_mac_sigRetriesExceeded
scalar World.node[2].nic.mac1609_4 sentAcks:count 0
attr source org_car2x_veins_modules_mac_sigSentAck
scalar World.node[2].nic.mac1609_4 sentPackets:count 1130
attr source org_car2x_veins_modules_mac_sigSentPacket
scalar World.node[2].nic.mac1609_4 collisions:count 0
attr source org_car2x_veins_modules_mac_sigCollision
scalar World.node[2].nic.mac1609_4 channelBusy:timeavg 0.057795642760491
attr source org_car2x_veins_modules_mac_sigChannelBusy
scalar World.node[39].appl.middleware.DenService transmission:count 0
attr source DenmSent
scalar World.node[39].appl.middleware.DenService reception:count 39
attr source DenmReceived
scalar World.node[39].nic.phy80211p busyTime 0.08384
scalar World.node[39].nic.mac1609_4 ReceivedUnicastPackets 0
scalar World.node[39].nic.mac1609_4 ReceivedBroadcasts 41
scalar World.node[39].nic.mac1609_4 SentPackets 1
scalar World.node[39].nic.mac1609_4 SentAcknowledgements 0
scalar World.node[39].nic.mac1609_4 RetriesExceeded 0
scalar World.node[39].nic.mac1609_4 SNIRLostPackets 0
scalar World.node[39].nic.mac1609_4 RXTXLostPackets 0
scalar World.node[39].nic.mac1609_4 TotalLostPackets 0
scalar World.node[39].nic.mac1609_4 DroppedPacketsInMac 0
scalar World.node[39].nic.mac1609_4 TooLittleTime 0
scalar World.node[39].nic.mac1609_4 TimesIntoBackoff 1
scalar World.node[39].nic.mac1609_4 SlotsBackoff 12
scalar World.node[39].nic.mac1609_4 NumInternalContention 0
scalar World.node[39].nic.mac1609_4 totalBusyTime 0.008585
scalar World.node[39].nic.mac1609_4 retriesExceeded:count 0
attr source org_car2x_veins_modules_mac_sigRetriesExceeded
scalar World.node[39].nic.mac1609_4 sentAcks:count 0
attr source org_car2x_veins_modules_mac_sigSentAck
scalar World.node[39].nic.mac1609_4 sentPackets:count 1
attr source org_car2x_veins_modules_mac_sigSentPacket
scalar World.node[39].nic.mac1609_4 collisions:count 0
attr source org_car2x_veins_modules_mac_sigCollision
scalar World.node[39].nic.mac1609_4 channelBusy:timeavg 0.08585
attr source org_car2x_veins_modules_mac_sigChannelBusy
scalar World.node[10].appl.middleware.DenService transmission:count 529
attr source DenmSent
scalar World.node[10].appl.middleware.DenService reception:count 17226
attr source DenmReceived
scalar World.node[10].nic.phy80211p busyTime 0.066700825396828
scalar World.node[10].nic.mac1609_4 ReceivedUnicastPackets 0
scalar World.node[10].nic.mac1609_4 ReceivedBroadcasts 20120
scalar World.node[10].nic.mac1609_4 SentPackets 1049
scalar World.node[10].nic.mac1609_4 SentAcknowledgements 0
scalar World.node[10].nic.mac1609_4 RetriesExceeded 0
scalar World.node[10].nic.mac1609_4 SNIRLostPackets 0
scalar World.node[10].nic.mac1609_4 RXTXLostPackets 0
scalar World.node[10].nic.mac1609_4 TotalLostPackets 0
scalar World.node[10].nic.mac1609_4 DroppedPacketsInMac 0
scalar World.node[10].nic.mac1609_4 TooLittleTime 0
scalar World.node[10].nic.mac1609_4 TimesIntoBackoff 1049
scalar World.node[10].nic.mac1609_4 SlotsBackoff 4304
scalar World.node[10].nic.mac1609_4 NumInternalContention 0
scalar World.node[10].nic.mac1609_4 totalBusyTime 4.417081
scalar World.node[10].nic.mac1609_4 retriesExceeded:count 0
attr source org_car2x_veins_modules_mac_sigRetriesExceeded
scalar World.node[10].nic.mac1609_4 sentAcks:count 0
attr source org_car2x_veins_modules_mac_sigSentAck
scalar World.node[10].nic.mac1609_4 sentPackets:count 1049
attr source org_car2x_veins_modules_mac_sigSentPacket
scalar World.node[10].nic.mac1609_4 collisions:count 0
attr source org_car2x_veins_modules_mac_sigCollision
scalar World.node[10].nic.mac1609_4 channelBusy:timeavg 0.070112396825405
attr source org_car2x_veins_modules_mac_sigChannelBusy
scalar World.node[9].appl.middleware.DenService transmission:count 554
attr source DenmSent
scalar World.node[9].appl.middleware.DenService reception:count 18019
attr source DenmReceived
scalar World.node[9].nic.phy80211p busyTime 0.06586491603054
scalar World.node[9].nic.mac1609_4 ReceivedUnicastPackets 0
scalar World.node[9].nic.mac1609_4 ReceivedBroadcasts 20653
scalar World.node[9].nic.mac1609_4 SentPackets 1091
scalar World.node[9].nic.mac1609_4 SentAcknowledgements 0
scalar World.node[9].nic.mac1609_4 RetriesExceeded 0
scalar World.node[9].nic.mac1609_4 SNIRLostPackets 0
scalar World.node[9].nic.mac1609_4 RXTXLostPackets 0
scalar World.node[9].nic.mac1609_4 TotalLostPackets 0
scalar World.node[9].nic.mac1609_4 DroppedPacketsInMac 0
scalar World.node[9].nic.mac1609_4 TooLittleTime 0
scalar World.node[9].nic.mac1609_4 TimesIntoBackoff 1092
scalar World.node[9].nic.mac1609_4 SlotsBackoff 4588
scalar World.node[9].nic.mac1609_4 NumInternalContention 0
scalar World.node[9].nic.mac1609_4 totalBusyTime 4.536763
scalar World.node[9].nic.mac1609_4 retriesExceeded:count 0
attr source org_car2x_veins_modules_mac_sigRetriesExceeded
scalar World.node[9].nic.mac1609_4 sentAcks:count 0
attr source org_car2x_veins_modules_mac_sigSentAck
scalar World.node[9].nic.mac1609_4 sentPackets:count 1091
attr source org_car2x_veins_modules_mac_sigSentPacket
scalar World.node[9].nic.mac1609_4 collisions:count 0
attr source org_car2x_veins_modules_mac_sigCollision
scalar World.node[9].nic.mac1609_4 channelBusy:timeavg 0.069263557251919
attr source org_car2x_veins_modules_mac_sigChannelBusy
scalar World.node[8].appl.middleware.DenService transmission:count 100
attr source DenmSent
scalar World.node[8].appl.middleware.DenService reception:count 18320
attr source DenmReceived
scalar World.node[8].nic.phy80211p busyTime 0.064995218658901
scalar World.node[8].nic.mac1609_4 ReceivedUnicastPackets 0
scalar World.node[8].nic.mac1609_4 ReceivedBroadcasts 21348
scalar World.node[8].nic.mac1609_4 SentPackets 1142
scalar World.node[8].nic.mac1609_4 SentAcknowledgements 0
scalar World.node[8].nic.mac1609_4 RetriesExceeded 0
scalar World.node[8].nic.mac1609_4 SNIRLostPackets 2
scalar World.node[8].nic.mac1609_4 RXTXLostPackets 0
scalar World.node[8].nic.mac1609_4 TotalLostPackets 2
scalar World.node[8].nic.mac1609_4 DroppedPacketsInMac 0
scalar World.node[8].nic.mac1609_4 TooLittleTime 0
scalar World.node[8].nic.mac1609_4 TimesIntoBackoff 1162
scalar World.node[8].nic.mac1609_4 SlotsBackoff 5063
scalar World.node[8].nic.mac1609_4 NumInternalContention 0
scalar World.node[8].nic.mac1609_4 totalBusyTime 4.691774
scalar World.node[8].nic.mac1609_4 retriesExceeded:count 0
attr source org_car2x_veins_modules_mac_sigRetriesExceeded
scalar World.node[8].nic.mac1609_4 sentAcks:count 0
attr source org_car2x_veins_modules_mac_sigSentAck
scalar World.node[8].nic.mac1609_4 sentPackets:count 1142
attr source org_car2x_veins_modules_mac_sigSentPacket
scalar World.node[8].nic.mac1609_4 collisions:count 0
attr source org_car2x_veins_modules_mac_sigCollision
scalar World.node[8].nic.mac1609_4 channelBusy:timeavg 0.068393206997099
attr source org_car2x_veins_modules_mac_sigChannelBusy
scalar World.node[37].appl.middleware.DenService transmission:count 20
attr source DenmSent
scalar World.node[37].appl.middleware.DenService reception:count 4672
attr source DenmReceived
scalar World.node[37].nic.phy80211p busyTime 0.082138914728677
scalar World.node[37].nic.mac1609_4 ReceivedUnicastPackets 0
scalar World.node[37].nic.mac1609_4 ReceivedBroadcasts 5118
scalar World.node[37].nic.mac1609_4 SentPackets 214
scalar World.node[37].nic.mac1609_4 SentAcknowledgements 0
scalar World.node[37].nic.mac1609_4 RetriesExceeded 0
scalar World.node[37].nic.mac1609_4 SNIRLostPackets 0
scalar World.node[37].nic.mac1609_4 RXTXLostPackets 9
scalar World.node[37].nic.mac1609_4 TotalLostPackets 9
scalar World.node[37].nic.mac1609_4 DroppedPacketsInMac 0
scalar World.node[37].nic.mac1609_4 TooLittleTime 0
scalar World.node[37].nic.mac1609_4 TimesIntoBackoff 328
scalar World.node[37].nic.mac1609_4 SlotsBackoff 2176
scalar World.node[37].nic.mac1609_4 NumInternalContention 0
scalar World.node[37].nic.mac1609_4 totalBusyTime 1.105046
scalar World.node[37].nic.mac1609_4 retriesExceeded:count 0
attr source org_car2x_veins_modules_mac_sigRetriesExceeded
scalar World.node[37].nic.mac1609_4 sentAcks:count 0
attr source org_car2x_veins_modules_mac_sigSentAck
scalar World.node[37].nic.mac1609_4 sentPackets:count 214
attr source org_car2x_veins_modules_mac_sigSentPacket
scalar World.node[37].nic.mac1609_4 collisions:count 0
attr source org_car2x_veins_modules_mac_sigCollision
scalar World.node[37].nic.mac1609_4 channelBusy:timeavg 0.085662480620149
attr source org_car2x_veins_modules_mac_sigChannelBusy
scalar World.node[11].appl.middleware.DenService transmission:count 0
attr source DenmSent
scalar World.node[11].appl.middleware.DenService reception:count 20049
attr source DenmReceived
scalar World.node[11].nic.phy80211p busyTime 0.068800000000013
scalar World.node[11].nic.mac1609_4 ReceivedUnicastPackets 0
scalar World.node[11].nic.mac1609_4 ReceivedBroadcasts 22044
scalar World.node[11].nic.mac1609_4 SentPackets 1109
scalar World.node[11].nic.mac1609_4 SentAcknowledgements 0
scalar World.node[11].nic.mac1609_4 RetriesExceeded 0
scalar World.node[11].nic.mac1609_4 SNIRLostPackets 18
scalar World.node[11].nic.mac1609_4 RXTXLostPackets 0
scalar World.node[11].nic.mac1609_4 TotalLostPackets 18
scalar World.node[11].nic.mac1609_4 DroppedPacketsInMac 0
scalar World.node[11].nic.mac1609_4 TooLittleTime 0
scalar World.node[11].nic.mac1609_4 TimesIntoBackoff 1109
scalar World.node[11].nic.mac1609_4 SlotsBackoff 8476
scalar World.node[11].nic.mac1609_4 NumInternalContention 0
scalar World.node[11].nic.mac1609_4 totalBusyTime 4.826717
scalar World.node[11].nic.mac1609_4 retriesExceeded:count 0
attr source org_car2x_veins_modules_mac_sigRetriesExceeded
scalar World.node[11].nic.mac1609_4 sentAcks:count 0
attr source org_car2x_veins_modules_mac_sigSentAck
scalar World.node[11].nic.mac1609_4 sentPackets:count 1109
attr source org_car2x_veins_modules_mac_sigSentPacket
scalar World.node[11].nic.mac1609_4 collisions:count 0
attr source org_car2x_veins_modules_mac_sigCollision
scalar World.node[11].nic.mac1609_4 channelBusy:timeavg 0.072473228228247
attr source org_car2x_veins_modules_mac_sigChannelBusy
scalar World.node[6].appl.middleware.DenService transmission:count 10
attr source DenmSent
scalar World.node[6].appl.middleware.DenService reception:count 20782
attr source DenmReceived
scalar World.node[6].nic.phy80211p busyTime 0.062878652849759
scalar World.node[6].nic.mac1609_4 ReceivedUnicastPackets 0
scalar World.node[6].nic.mac1609_4 ReceivedBroadcasts 23329
scalar World.node[6].nic.mac1609_4 SentPackets 1284
scalar World.node[6].nic.mac1609_4 SentAcknowledgements 0
scalar World.node[6].nic.mac1609_4 RetriesExceeded 0
scalar World.node[6].nic.mac1609_4 SNIRLostPackets 9
scalar World.node[6].nic.mac1609_4 RXTXLostPackets 0
scalar World.node[6].nic.mac1609_4 TotalLostPackets 9
scalar World.node[6].nic.mac1609_4 DroppedPacketsInMac 0
scalar World.node[6].nic.mac1609_4 TooLittleTime 0
scalar World.node[6].nic.mac1609_4 TimesIntoBackoff 1284
scalar World.node[6].nic.mac1609_4 SlotsBackoff 7223
scalar World.node[6].nic.mac1609_4 NumInternalContention 0
scalar World.node[6].nic.mac1609_4 totalBusyTime 5.135548
scalar World.node[6].nic.mac1609_4 retriesExceeded:count 0
attr source org_car2x_veins_modules_mac_sigRetriesExceeded
scalar World.node[6].nic.mac1609_4 sentAcks:count 0
attr source org_car2x_veins_modules_mac_sigSentAck
scalar World.node[6].nic.mac1609_4 sentPackets:count 1284
attr source org_car2x_veins_modules_mac_sigSentPacket
scalar World.node[6].nic.mac1609_4 collisions:count 0
attr source org_car2x_veins_modules_mac_sigCollision
scalar World.node[6].nic.mac1609_4 channelBusy:timeavg 0.06652264248707
attr source org_car2x_veins_modules_mac_sigChannelBusy
scalar World.node[29].appl.middleware.DenService transmission:count 230
attr source DenmSent
scalar World.node[29].appl.middleware.DenService reception:count 11718
attr source DenmReceived
scalar World.node[29].nic.phy80211p busyTime 0.080384378698219
scalar World.node[29].nic.mac1609_4 ReceivedUnicastPackets 0
scalar World.node[29].nic.mac1609_4 ReceivedBroadcasts 13076
scalar World.node[29].nic.mac1609_4 SentPackets 562
scalar World.node[29].nic.mac1609_4 SentAcknowledgements 0
scalar World.node[29].nic.mac1609_4 RetriesExceeded 0
scalar World.node[29].nic.mac1609_4 SNIRLostPackets 18
scalar World.node[29].nic.mac1609_4 RXTXLostPackets 0
scalar World.node[29].nic.mac1609_4 TotalLostPackets 18
scalar World.node[29].nic.mac1609_4 DroppedPacketsInMac 0
scalar World.node[29].nic.mac1609_4 TooLittleTime 0
scalar World.node[29].nic.mac1609_4 TimesIntoBackoff 562
scalar World.node[29].nic.mac1609_4 SlotsBackoff 2666
scalar World.node[29].nic.mac1609_4 NumInternalContention 0
scalar World.node[29].nic.mac1609_4 totalBusyTime 2.832498
scalar World.node[29].nic.mac1609_4 retriesExceeded:count 0
attr source org_car2x_veins_modules_mac_sigRetriesExceeded
scalar World.node[29].nic.mac1609_4 sentAcks:count 0
attr source org_car2x_veins_modules_mac_sigSentAck
scalar World.node[29].nic.mac1609_4 sentPackets:count 562
attr source org_car2x_veins_modules_mac_sigSentPacket
scalar World.node[29].nic.mac1609_4 collisions:count 0
attr source org_car2x_veins_modules_mac_sigCollision
scalar World.node[29].nic.mac1609_4 channelBusy:timeavg 0.083801715976326
attr source org_car2x_veins_modules_mac_sigChannelBusy
scalar World.node[41].appl.middleware.DenService transmission:count 1
attr source DenmSent
scalar World.node[41].appl.middleware.DenService reception:count 3768
attr source DenmReceived
scalar World.node[41].nic.phy80211p busyTime 0.082731764705877
scalar World.node[41].nic.mac1609_4 ReceivedUnicastPackets 0
scalar World.node[41].nic.mac1609_4 ReceivedBroadcasts 4070
scalar World.node[41].nic.mac1609_4 SentPackets 169
scalar World.node[41].nic.mac1609_4 SentAcknowledgements 0
scalar World.node[41].nic.mac1609_4 RetriesExceeded 0
scalar World.node[41].nic.mac1609_4 SNIRLostPackets 17
scalar World.node[41].nic.mac1609_4 RXTXLostPackets 0
scalar World.node[41].nic.mac1609_4 TotalLostPackets 17
scalar World.node[41].nic.mac1609_4 DroppedPacketsInMac 0
scalar World.node[41].nic.mac1609_4 TooLittleTime 0
scalar World.node[41].nic.mac1609_4 TimesIntoBackoff 169
scalar World.node[41].nic.mac1609_4 SlotsBackoff 1286
scalar World.node[41].nic.mac1609_4 NumInternalContention 0
scalar World.node[41].nic.mac1609_4 totalBusyTime 0.878721
scalar World.node[41].nic.mac1609_4 retriesExceeded:count 0
attr source org_car2x_veins_modules_mac_sigRetriesExceeded
scalar World.node[41].nic.mac1609_4 sentAcks:count 0
attr source org_car2x_veins_modules_mac_sigSentAck
scalar World.node[41].nic.mac1609_4 sentPackets:count 169
attr source org_car2x_veins_modules_mac_sigSentPacket
scalar World.node[41].nic.mac1609_4 collisions:count 0
attr source org_car2x_veins_modules_mac_sigCollision
scalar World.node[41].nic.mac1609_4 channelBusy:timeavg 0.086149117647053
attr source org_car2x_veins_modules_mac_sigChannelBusy
scalar World.node[20].appl.middleware.DenService transmission:count 150
attr source DenmSent
scalar World.node[20].appl.middleware.DenService reception:count 17958
attr source DenmReceived
scalar World.node[20].nic.phy80211p busyTime 0.076125318761387
scalar World.node[20].nic.mac1609_4 ReceivedUnicastPackets 0
scalar World.node[20].nic.mac1609_4 ReceivedBroadcasts 20075
scalar World.node[20].nic.mac1609_4 SentPackets 914
scalar World.node[20].nic.mac1609_4 SentAcknowledgements 0
scalar World.node[20].nic.mac1609_4 RetriesExceeded 0
scalar World.node[20].nic.mac1609_4 SNIRLostPackets 18
scalar World.node[20].nic.mac1609_4 RXTXLostPackets 0
scalar World.node[20].nic.mac1609_4 TotalLostPackets 18
scalar World.node[20].nic.mac1609_4 DroppedPacketsInMac 0
scalar World.node[20].nic.mac1609_4 TooLittleTime 0
scalar World.node[20].nic.mac1609_4 TimesIntoBackoff 919
scalar World.node[20].nic.mac1609_4 SlotsBackoff 3961
scalar World.node[20].nic.mac1609_4 NumInternalContention 0
scalar World.node[20].nic.mac1609_4 totalBusyTime 4.364138
scalar World.node[20].nic.mac1609_4 retriesExceeded:count 0
attr source org_car2x_veins_modules_mac_sigRetriesExceeded
scalar World.node[20].nic.mac1609_4 sentAcks:count 0
attr source org_car2x_veins_modules_mac_sigSentAck
scalar World.node[20].nic.mac1609_4 sentPackets:count 914
attr source org_car2x_veins_modules_mac_sigSentPacket
scalar World.node[20].nic.mac1609_4 collisions:count 0
attr source org_car2x_veins_modules_mac_sigCollision
scalar World.node[20].nic.mac1609_4 channelBusy:timeavg 0.079492495446274
attr source org_car2x_veins_modules_mac_sigChannelBusy
scalar World.node[18].appl.middleware.DenService transmission:count 260
attr source DenmSent
scalar World.node[18].appl.middleware.DenService reception:count 20069
attr source DenmReceived
scalar World.node[18].nic.phy80211p busyTime 0.075563398692826
scalar World.node[18].nic.mac1609_4 ReceivedUnicastPackets 0
scalar World.node[18].nic.mac1609_4 ReceivedBroadcasts 22221
scalar World.node[18].nic.mac1609_4 SentPackets 1019
scalar World.node[18].nic.mac1609_4 SentAcknowledgements 0
scalar World.node[18].nic.mac1609_4 RetriesExceeded 0
scalar World.node[18].nic.mac1609_4 SNIRLostPackets 0
scalar World.node[18].nic.mac1609_4 RXTXLostPackets 9
scalar World.node[18].nic.mac1609_4 TotalLostPackets 9
scalar World.node[18].nic.mac1609_4 DroppedPacketsInMac 0
scalar World.node[18].nic.mac1609_4 TooLittleTime 0
scalar World.node[18].nic.mac1609_4 TimesIntoBackoff 1395
scalar World.node[18].nic.mac1609_4 SlotsBackoff 5585
scalar World.node[18].nic.mac1609_4 NumInternalContention 0
scalar World.node[18].nic.mac1609_4 totalBusyTime 4.833339
scalar World.node[18].nic.mac1609_4 retriesExceeded:count 0
attr source org_car2x_veins_modules_mac_sigRetriesExceeded
scalar World.node[18].nic.mac1609_4 sentAcks:count 0
attr source org_car2x_veins_modules_mac_sigSentAck
scalar World.node[18].nic.mac1609_4 sentPackets:count 1019
attr source org_car2x_veins_modules_mac_sigSentPacket
scalar World.node[18].nic.mac1609_4 collisions:count 0
attr source org_car2x_veins_modules_mac_sigCollision
scalar World.node[18].nic.mac1609_4 channelBusy:timeavg 0.078976127451001
attr source org_car2x_veins_modules_mac_sigChannelBusy
scalar World.node[16].appl.middleware.DenService transmission:count 160
attr source DenmSent
scalar World.node[16].appl.middleware.DenService reception:count 21375
attr source DenmReceived
scalar World.node[16].nic.phy80211p busyTime 0.07453928571431
scalar World.node[16].nic.mac1609_4 ReceivedUnicastPackets 0
scalar World.node[16].nic.mac1609_4 ReceivedBroadcasts 24046
scalar World.node[16].nic.mac1609_4 SentPackets 1119
scalar World.node[16].nic.mac1609_4 SentAcknowledgements 0
scalar World.node[16].nic.mac1609_4 RetriesExceeded 0
scalar World.node[16].nic.mac1609_4 SNIRLostPackets 18
scalar World.node[16].nic.mac1609_4 RXTXLostPackets 0
scalar World.node[16].nic.mac1609_4 TotalLostPackets 18
scalar World.node[16].nic.mac1609_4 DroppedPacketsInMac 0
scalar World.node[16].nic.mac1609_4 TooLittleTime 0
scalar World.node[16].nic.mac1609_4 TimesIntoBackoff 1119
scalar World.node[16].nic.mac1609_4 SlotsBackoff 4749
scalar World.node[16].nic.mac1609_4 NumInternalContention 0
scalar World.node[16].nic.mac1609_4 totalBusyTime 5.236039
scalar World.node[16].nic.mac1609_4 retriesExceeded:count 0
attr source org_car2x_veins_modules_mac_sigRetriesExceeded
scalar World.node[16].nic.mac1609_4 sentAcks:count 0
attr source org_car2x_veins_modules_mac_sigSentAck
scalar World.node[16].nic.mac1609_4 sentPackets:count 1119
attr source org_car2x_veins_modules_mac_sigSentPacket
scalar World.node[16].nic.mac1609_4 collisions:count 0
attr source org_car2x_veins_modules_mac_sigCollision
scalar World.node[16].nic.mac1609_4 channelBusy:timeavg 0.077922270438481
attr source org_car2x_veins_modules_mac_sigChannelBusy
scalar World.node[26].appl.middleware.DenService transmission:count 170
attr source DenmSent
scalar World.node[26].appl.middleware.DenService reception:count 14513
attr source DenmReceived
scalar World.node[26].nic.phy80211p busyTime 0.069541576763481
scalar World.node[26].nic.mac1609_4 ReceivedUnicastPackets 0
scalar World.node[26].nic.mac1609_4 ReceivedBroadcasts 16130
scalar World.node[26].nic.mac1609_4 SentPackets 802
scalar World.node[26].nic.mac1609_4 SentAcknowledgements 0
scalar World.node[26].nic.mac1609_4 RetriesExceeded 0
scalar World.node[26].nic.mac1609_4 SNIRLostPackets 18
scalar World.node[26].nic.mac1609_4 RXTXLostPackets 0
scalar World.node[26].nic.mac1609_4 TotalLostPackets 18
scalar World.node[26].nic.mac1609_4 DroppedPacketsInMac 0
scalar World.node[26].nic.mac1609_4 TooLittleTime 0
scalar World.node[26].nic.mac1609_4 TimesIntoBackoff 802
scalar World.node[26].nic.mac1609_4 SlotsBackoff 3659
scalar World.node[26].nic.mac1609_4 NumInternalContention 0
scalar World.node[26].nic.mac1609_4 totalBusyTime 3.514042
scalar World.node[26].nic.mac1609_4 retriesExceeded:count 0
attr source org_car2x_veins_modules_mac_sigRetriesExceeded
scalar World.node[26].nic.mac1609_4 sentAcks:count 0
attr source org_car2x_veins_modules_mac_sigSentAck
scalar World.node[26].nic.mac1609_4 sentPackets:count 802
attr source org_car2x_veins_modules_mac_sigSentPacket
scalar World.node[26].nic.mac1609_4 collisions:count 0
attr source org_car2x_veins_modules_mac_sigCollision
scalar World.node[26].nic.mac1609_4 channelBusy:timeavg 0.072905435684643
attr source org_car2x_veins_modules_mac_sigChannelBusy
scalar World.node[22].appl.middleware.DenService transmission:count 130
attr source DenmSent
scalar World.node[22].appl.middleware.DenService reception:count 21004
attr source DenmReceived
scalar World.node[22].nic.phy80211p busyTime 0.077993461538483
scalar World.node[22].nic.mac1609_4 ReceivedUnicastPackets 0
scalar World.node[22].nic.mac1609_4 ReceivedBroadcasts 23415
scalar World.node[22].nic.mac1609_4 SentPackets 1039
scalar World.node[22].nic.mac1609_4 SentAcknowledgements 0
scalar World.node[22].nic.mac1609_4 RetriesExceeded 0
scalar World.node[22].nic.mac1609_4 SNIRLostPackets 9
scalar World.node[22].nic.mac1609_4 RXTXLostPackets 0
scalar World.node[22].nic.mac1609_4 TotalLostPackets 9
scalar World.node[22].nic.mac1609_4 DroppedPacketsInMac 0
scalar World.node[22].nic.mac1609_4 TooLittleTime 0
scalar World.node[22].nic.mac1609_4 TimesIntoBackoff 1059
scalar World.node[22].nic.mac1609_4 SlotsBackoff 4254
scalar World.node[22].nic.mac1609_4 NumInternalContention 0
scalar World.node[22].nic.mac1609_4 totalBusyTime 5.077343
scalar World.node[22].nic.mac1609_4 retriesExceeded:count 0
attr source org_car2x_veins_modules_mac_sigRetriesExceeded
scalar World.node[22].nic.mac1609_4 sentAcks:count 0
attr source org_car2x_veins_modules_mac_sigSentAck
scalar World.node[22].nic.mac1609_4 sentPackets:count 1039
attr source org_car2x_veins_modules_mac_sigSentPacket
scalar World.node[22].nic.mac1609_4 collisions:count 0
attr source org_car2x_veins_modules_mac_sigCollision
scalar World.node[22].nic.mac1609_4 channelBusy:timeavg 0.081367676282078
attr source org_car2x_veins_modules_mac_sigChannelBusy
scalar World.node[24].appl.middleware.DenService transmission:count 0
attr source DenmSent
scalar World.node[24].appl.middleware.DenService reception:count 21636
attr source DenmReceived
scalar World.node[24].nic.phy80211p busyTime 0.078563987138286
scalar World.node[24].nic.mac1609_4 ReceivedUnicastPackets 0
scalar World.node[24].nic.mac1609_4 ReceivedBroadcasts 23587
scalar World.node[24].nic.mac1609_4 SentPackets 1036
scalar World.node[24].nic.mac1609_4 SentAcknowledgements 0
scalar World.node[24].nic.mac1609_4 RetriesExceeded 0
scalar World.node[24].nic.mac1609_4 SNIRLostPackets 9
scalar World.node[24].nic.mac1609_4 RXTXLostPackets 0
scalar World.node[24].nic.mac1609_4 TotalLostPackets 9
scalar World.node[24].nic.mac1609_4 DroppedPacketsInMac 0
scalar World.node[24].nic.mac1609_4 TooLittleTime 0
scalar World.node[24].nic.mac1609_4 TimesIntoBackoff 1722
scalar World.node[24].nic.mac1609_4 SlotsBackoff 12802
scalar World.node[24].nic.mac1609_4 NumInternalContention 0
scalar World.node[24].nic.mac1609_4 totalBusyTime 5.10938
scalar World.node[24].nic.mac1609_4 retriesExceeded:count 0
attr source org_car2x_veins_modules_mac_sigRetriesExceeded
scalar World.node[24].nic.mac1609_4 sentAcks:count 0
attr source org_car2x_veins_modules_mac_sigSentAck
scalar World.node[24].nic.mac1609_4 sentPackets:count 1036
attr source org_car2x_veins_modules_mac_sigSentPacket
scalar World.node[24].nic.mac1609_4 collisions:count 0
attr source org_car2x_veins_modules_mac_sigCollision
scalar World.node[24].nic.mac1609_4 channelBusy:timeavg 0.082144372990381
attr source org_car2x_veins_modules_mac_sigChannelBusy
scalar World.node[33].appl.middleware.DenService transmission:count 356
attr source DenmSent
scalar World.node[33].appl.middleware.DenService reception:count 16243
attr source DenmReceived
scalar World.node[33].nic.phy80211p busyTime 0.082213916849011
scalar World.node[33].nic.mac1609_4 ReceivedUnicastPackets 0
scalar World.node[33].nic.mac1609_4 ReceivedBroadcasts 18102
scalar World.node[33].nic.mac1609_4 SentPackets 761
scalar World.node[33].nic.mac1609_4 SentAcknowledgements 0
scalar World.node[33].nic.mac1609_4 RetriesExceeded 0
scalar World.node[33].nic.mac1609_4 SNIRLostPackets 18
scalar World.node[33].nic.mac1609_4 RXTXLostPackets 0
scalar World.node[33].nic.mac1609_4 TotalLostPackets 18
scalar World.node[33].nic.mac1609_4 DroppedPacketsInMac 0
scalar World.node[33].nic.mac1609_4 TooLittleTime 0
scalar World.node[33].nic.mac1609_4 TimesIntoBackoff 761
scalar World.node[33].nic.mac1609_4 SlotsBackoff 3402
scalar World.node[33].nic.mac1609_4 NumInternalContention 0
scalar World.node[33].nic.mac1609_4 totalBusyTime 3.911833
scalar World.node[33].nic.mac1609_4 retriesExceeded:count 0
attr source org_car2x_veins_modules_mac_sigRetriesExceeded
scalar World.node[33].nic.mac1609_4 sentAcks:count 0
attr source org_car2x_veins_modules_mac_sigSentAck
scalar World.node[33].nic.mac1609_4 sentPackets:count 761
attr source org_car2x_veins_modules_mac_sigSentPacket
scalar World.node[33].nic.mac1609_4 collisions:count 0
attr source org_car2x_veins_modules_mac_sigCollision
scalar World.node[33].nic.mac1609_4 channelBusy:timeavg 0.085598096280083
attr source org_car2x_veins_modules_mac_sigChannelBusy
scalar World.node[23].appl.middleware.DenService transmission:count 150
attr source DenmSent
scalar World.node[23].appl.middleware.DenService reception:count 22208
attr source DenmReceived
scalar World.node[23].nic.phy80211p busyTime 0.078816509863459
scalar World.node[23].nic.mac1609_4 ReceivedUnicastPackets 0
scalar World.node[23].nic.mac1609_4 ReceivedBroadcasts 25009
scalar World.node[23].nic.mac1609_4 SentPackets 1097
scalar World.node[23].nic.mac1609_4 SentAcknowledgements 0
scalar World.node[23].nic.mac1609_4 RetriesExceeded 0
scalar World.node[23].nic.mac1609_4 SNIRLostPackets 9
scalar World.node[23].nic.mac1609_4 RXTXLostPackets 0
scalar World.node[23].nic.mac1609_4 TotalLostPackets 9
scalar World.node[23].nic.mac1609_4 DroppedPacketsInMac 0
scalar World.node[23].nic.mac1609_4 TooLittleTime 0
scalar World.node[23].nic.mac1609_4 TimesIntoBackoff 1097
scalar World.node[23].nic.mac1609_4 SlotsBackoff 4451
scalar World.node[23].nic.mac1609_4 NumInternalContention 0
scalar World.node[23].nic.mac1609_4 totalBusyTime 5.416849
scalar World.node[23].nic.mac1609_4 retriesExceeded:count 0
attr source org_car2x_veins_modules_mac_sigRetriesExceeded
scalar World.node[23].nic.mac1609_4 sentAcks:count 0
attr source org_car2x_veins_modules_mac_sigSentAck
scalar World.node[23].nic.mac1609_4 sentPackets:count 1097
attr source org_car2x_veins_modules_mac_sigSentPacket
scalar World.node[23].nic.mac1609_4 collisions:count 0
attr source org_car2x_veins_modules_mac_sigCollision
scalar World.node[23].nic.mac1609_4 channelBusy:timeavg 0.082198012139639
attr source org_car2x_veins_modules_mac_sigChannelBusy
scalar World.node[34].appl.middleware.DenService transmission:count 30
attr source DenmSent
scalar World.node[34].appl.middleware.DenService reception:count 15739
attr source DenmReceived
scalar World.node[34].nic.phy80211p busyTime 0.082091272727268
scalar World.node[34].nic.mac1609_4 ReceivedUnicastPackets 0
scalar World.node[34].nic.mac1609_4 ReceivedBroadcasts 17412
scalar World.node[34].nic.mac1609_4 SentPackets 732
scalar World.node[34].nic.mac1609_4 SentAcknowledgements 0
scalar World.node[34].nic.mac1609_4 RetriesExceeded 0
scalar World.node[34].nic.mac1609_4 SNIRLostPackets 9
scalar World.node[34].nic.mac1609_4 RXTXLostPackets 0
scalar World.node[34].nic.mac1609_4 TotalLostPackets 9
scalar World.node[34].nic.mac1609_4 DroppedPacketsInMac 0
scalar World.node[34].nic.mac1609_4 TooLittleTime 0
scalar World.node[34].nic.mac1609_4 TimesIntoBackoff 732
scalar World.node[34].nic.mac1609_4 SlotsBackoff 3362
scalar World.node[34].nic.mac1609_4 NumInternalContention 0
scalar World.node[34].nic.mac1609_4 totalBusyTime 3.760364
scalar World.node[34].nic.mac1609_4 retriesExceeded:count 0
attr source org_car2x_veins_modules_mac_sigRetriesExceeded
scalar World.node[34].nic.mac1609_4 sentAcks:count 0
attr source org_car2x_veins_modules_mac_sigSentAck
scalar World.node[34].nic.mac1609_4 sentPackets:count 732
attr source org_car2x_veins_modules_mac_sigSentPacket
scalar World.node[34].nic.mac1609_4 collisions:count 0
attr source org_car2x_veins_modules_mac_sigCollision
scalar World.node[34].nic.mac1609_4 channelBusy:timeavg 0.085462818181814
attr source org_car2x_veins_modules_mac_sigChannelBusy
scalar World.node[36].appl.middleware.DenService transmission:count 140
attr source DenmSent
scalar World.node[36].appl.middleware.DenService reception:count 13915
attr source DenmReceived
scalar World.node[36].nic.phy80211p busyTime 0.080692009925553
scalar World.node[36].nic.mac1609_4 ReceivedUnicastPackets 0
scalar World.node[36].nic.mac1609_4 ReceivedBroadcasts 15664
scalar World.node[36].nic.mac1609_4 SentPackets 671
scalar World.node[36].nic.mac1609_4 SentAcknowledgements 0
scalar World.node[36].nic.mac1609_4 RetriesExceeded 0
scalar World.node[36].nic.mac1609_4 SNIRLostPackets 18
scalar World.node[36].nic.mac1609_4 RXTXLostPackets 0
scalar World.node[36].nic.mac1609_4 TotalLostPackets 18
scalar World.node[36].nic.mac1609_4 DroppedPacketsInMac 0
scalar World.node[36].nic.mac1609_4 TooLittleTime 0
scalar World.node[36].nic.mac1609_4 TimesIntoBackoff 671
scalar World.node[36].nic.mac1609_4 SlotsBackoff 3183
scalar World.node[36].nic.mac1609_4 NumInternalContention 0
scalar World.node[36].nic.mac1609_4 totalBusyTime 3.387935106067
scalar World.node[36].nic.mac1609_4 retriesExceeded:count 0
attr source org_car2x_veins_modules_mac_sigRetriesExceeded
scalar World.node[36].nic.mac1609_4 sentAcks:count 0
attr source org_car2x_veins_modules_mac_sigSentAck
scalar World.node[36].nic.mac1609_4 sentPackets:count 671
attr source org_car2x_veins_modules_mac_sigSentPacket
scalar World.node[36].nic.mac1609_4 collisions:count 0
attr source org_car2x_veins_modules_mac_sigCollision
scalar World.node[36].nic.mac1609_4 channelBusy:timeavg 0.084067868636894
attr source org_car2x_veins_modules_mac_sigChannelBusy
scalar World.node[31].appl.middleware.DenService transmission:count 110
attr source DenmSent
scalar World.node[31].appl.middleware.DenService reception:count 18512
attr source DenmReceived
scalar World.node[31].nic.phy80211p busyTime 0.080981444866925
scalar World.node[31].nic.mac1609_4 ReceivedUnicastPackets 0
scalar World.node[31].nic.mac1609_4 ReceivedBroadcasts 20514
scalar World.node[31].nic.mac1609_4 SentPackets 876
scalar World.node[31].nic.mac1609_4 SentAcknowledgements 0
scalar World.node[31].nic.mac1609_4 RetriesExceeded 0
scalar World.node[31].nic.mac1609_4 SNIRLostPackets 18
scalar World.node[31].nic.mac1609_4 RXTXLostPackets 0
scalar World.node[31].nic.mac1609_4 TotalLostPackets 18
scalar World.node[31].nic.mac1609_4 DroppedPacketsInMac 0
scalar World.node[31].nic.mac1609_4 TooLittleTime 0
scalar World.node[31].nic.mac1609_4 TimesIntoBackoff 876
scalar World.node[31].nic.mac1609_4 SlotsBackoff 3855
scalar World.node[31].nic.mac1609_4 NumInternalContention 0
scalar World.node[31].nic.mac1609_4 totalBusyTime 4.437884
scalar World.node[31].nic.mac1609_4 retriesExceeded:count 0
attr source org_car2x_veins_modules_mac_sigRetriesExceeded
scalar World.node[31].nic.mac1609_4 sentAcks:count 0
attr source org_car2x_veins_modules_mac_sigSentAck
scalar World.node[31].nic.mac1609_4 sentPackets:count 876
attr source org_car2x_veins_modules_mac_sigSentPacket
scalar World.node[31].nic.mac1609_4 collisions:count 0
attr source org_car2x_veins_modules_mac_sigCollision
scalar World.node[31].nic.mac1609_4 channelBusy:timeavg 0.084370418250961
attr source org_car2x_veins_modules_mac_sigChannelBusy
scalar World.node[21].appl.middleware.DenService transmission:count 645
attr source DenmSent
scalar World.node[21].appl.middleware.DenService reception:count 25272
attr source DenmReceived
scalar World.node[21].nic.phy80211p busyTime 0.078335442359292
scalar World.node[21].nic.mac1609_4 ReceivedUnicastPackets 0
scalar World.node[21].nic.mac1609_4 ReceivedBroadcasts 28120
scalar World.node[21].nic.mac1609_4 SentPackets 1242
scalar World.node[21].nic.mac1609_4 SentAcknowledgements 0
scalar World.node[21].nic.mac1609_4 RetriesExceeded 0
scalar World.node[21].nic.mac1609_4 SNIRLostPackets 9
scalar World.node[21].nic.mac1609_4 RXTXLostPackets 0
scalar World.node[21].nic.mac1609_4 TotalLostPackets 9
scalar World.node[21].nic.mac1609_4 DroppedPacketsInMac 0
scalar World.node[21].nic.mac1609_4 TooLittleTime 0
scalar World.node[21].nic.mac1609_4 TimesIntoBackoff 1242
scalar World.node[21].nic.mac1609_4 SlotsBackoff 5215
scalar World.node[21].nic.mac1609_4 NumInternalContention 0
scalar World.node[21].nic.mac1609_4 totalBusyTime 6.094114
scalar World.node[21].nic.mac1609_4 retriesExceeded:count 0
attr source org_car2x_veins_modules_mac_sigRetriesExceeded
scalar World.node[21].nic.mac1609_4 sentAcks:count 0
attr source org_car2x_veins_modules_mac_sigSentAck
scalar World.node[21].nic.mac1609_4 sentPackets:count 1242
attr source org_car2x_veins_modules_mac_sigSentPacket
scalar World.node[21].nic.mac1609_4 collisions:count 0
attr source org_car2x_veins_modules_mac_sigCollision
scalar World.node[21].nic.mac1609_4 channelBusy:timeavg 0.081690536193075
attr source org_car2x_veins_modules_mac_sigChannelBusy
scalar World.node[30].appl.middleware.DenService transmission:count 282
attr source DenmSent
scalar World.node[30].appl.middleware.DenService reception:count 20074
attr source DenmReceived
scalar World.node[30].nic.phy80211p busyTime 0.080142547993034
scalar World.node[30].nic.mac1609_4 ReceivedUnicastPackets 0
scalar World.node[30].nic.mac1609_4 ReceivedBroadcasts 22132
scalar World.node[30].nic.mac1609_4 SentPackets 954
scalar World.node[30].nic.mac1609_4 SentAcknowledgements 0
scalar World.node[30].nic.mac1609_4 RetriesExceeded 0
scalar World.node[30].nic.mac1609_4 SNIRLostPackets 9
scalar World.node[30].nic.mac1609_4 RXTXLostPackets 0
scalar World.node[30].nic.mac1609_4 TotalLostPackets 9
scalar World.node[30].nic.mac1609_4 DroppedPacketsInMac 0
scalar World.node[30].nic.mac1609_4 TooLittleTime 0
scalar World.node[30].nic.mac1609_4 TimesIntoBackoff 959
scalar World.node[30].nic.mac1609_4 SlotsBackoff 5447
scalar World.node[30].nic.mac1609_4 NumInternalContention 0
scalar World.node[30].nic.mac1609_4 totalBusyTime 4.78965
scalar World.node[30].nic.mac1609_4 retriesExceeded:count 0
attr source org_car2x_veins_modules_mac_sigRetriesExceeded
scalar World.node[30].nic.mac1609_4 sentAcks:count 0
attr source org_car2x_veins_modules_mac_sigSentAck
scalar World.node[30].nic.mac1609_4 sentPackets:count 954
attr source org_car2x_veins_modules_mac_sigSentPacket
scalar World.node[30].nic.mac1609_4 collisions:count 0
attr source org_car2x_veins_modules_mac_sigCollision
scalar World.node[30].nic.mac1609_4 channelBusy:timeavg 0.083589005235622
attr source org_car2x_veins_modules_mac_sigChannelBusy
scalar World.node[25].appl.middleware.DenService transmission:count 0
attr source DenmSent
scalar World.node[25].appl.middleware.DenService reception:count 25516
attr source DenmReceived
scalar World.node[25].nic.phy80211p busyTime 0.078915084632389
scalar World.node[25].nic.mac1609_4 ReceivedUnicastPackets 0
scalar World.node[25].nic.mac1609_4 ReceivedBroadcasts 27748
scalar World.node[25].nic.mac1609_4 SentPackets 1212
scalar World.node[25].nic.mac1609_4 SentAcknowledgements 0
scalar World.node[25].nic.mac1609_4 RetriesExceeded 0
scalar World.node[25].nic.mac1609_4 SNIRLostPackets 9
scalar World.node[25].nic.mac1609_4 RXTXLostPackets 0
scalar World.node[25].nic.mac1609_4 TotalLostPackets 9
scalar World.node[25].nic.mac1609_4 DroppedPacketsInMac 0
scalar World.node[25].nic.mac1609_4 TooLittleTime 0
scalar World.node[25].nic.mac1609_4 TimesIntoBackoff 1212
scalar World.node[25].nic.mac1609_4 SlotsBackoff 9009
scalar World.node[25].nic.mac1609_4 NumInternalContention 0
scalar World.node[25].nic.mac1609_4 totalBusyTime 6.008508
scalar World.node[25].nic.mac1609_4 retriesExceeded:count 0
attr source org_car2x_veins_modules_mac_sigRetriesExceeded
scalar World.node[25].nic.mac1609_4 sentAcks:count 0
attr source org_car2x_veins_modules_mac_sigSentAck
scalar World.node[25].nic.mac1609_4 sentPackets:count 1212
attr source org_car2x_veins_modules_mac_sigSentPacket
scalar World.node[25].nic.mac1609_4 collisions:count 0
attr source org_car2x_veins_modules_mac_sigCollision
scalar World.node[25].nic.mac1609_4 channelBusy:timeavg 0.082555634175415
attr source org_car2x_veins_modules_mac_sigChannelBusy
scalar World.node[32].appl.middleware.DenService transmission:count 487
attr source DenmSent
scalar World.node[32].appl.middleware.DenService reception:count 20328
attr source DenmReceived
scalar World.node[32].nic.phy80211p busyTime 0.080678011791305
scalar World.node[32].nic.mac1609_4 ReceivedUnicastPackets 0
scalar World.node[32].nic.mac1609_4 ReceivedBroadcasts 22846
scalar World.node[32].nic.mac1609_4 SentPackets 979
scalar World.node[32].nic.mac1609_4 SentAcknowledgements 0
scalar World.node[32].nic.mac1609_4 RetriesExceeded 0
scalar World.node[32].nic.mac1609_4 SNIRLostPackets 9
scalar World.node[32].nic.mac1609_4 RXTXLostPackets 0
scalar World.node[32].nic.mac1609_4 TotalLostPackets 9
scalar World.node[32].nic.mac1609_4 DroppedPacketsInMac 0
scalar World.node[32].nic.mac1609_4 TooLittleTime 0
scalar World.node[32].nic.mac1609_4 TimesIntoBackoff 980
scalar World.node[32].nic.mac1609_4 SlotsBackoff 4131
scalar World.node[32].nic.mac1609_4 NumInternalContention 0
scalar World.node[32].nic.mac1609_4 totalBusyTime 4.941419
scalar World.node[32].nic.mac1609_4 retriesExceeded:count 0
attr source org_car2x_veins_modules_mac_sigRetriesExceeded
scalar World.node[32].nic.mac1609_4 sentAcks:count 0
attr source org_car2x_veins_modules_mac_sigSentAck
scalar World.node[32].nic.mac1609_4 sentPackets:count 979
attr source org_car2x_veins_modules_mac_sigSentPacket
scalar World.node[32].nic.mac1609_4 collisions:count 0
attr source org_car2x_veins_modules_mac_sigCollision
scalar World.node[32].nic.mac1609_4 channelBusy:timeavg 0.084064444780193
attr source org_car2x_veins_modules_mac_sigChannelBusy
scalar World.node[35].appl.middleware.DenService transmission:count 190
attr source DenmSent
scalar World.node[35].appl.middleware.DenService reception:count 18468
attr source DenmReceived
scalar World.node[35].nic.phy80211p busyTime 0.081135068774836
scalar World.node[35].nic.mac1609_4 ReceivedUnicastPackets 0
scalar World.node[35].nic.mac1609_4 ReceivedBroadcasts 20628
scalar World.node[35].nic.mac1609_4 SentPackets 879
scalar World.node[35].nic.mac1609_4 SentAcknowledgements 0
scalar World.node[35].nic.mac1609_4 RetriesExceeded 0
scalar World.node[35].nic.mac1609_4 SNIRLostPackets 18
scalar World.node[35].nic.mac1609_4 RXTXLostPackets 0
scalar World.node[35].nic.mac1609_4 TotalLostPackets 18
scalar World.node[35].nic.mac1609_4 DroppedPacketsInMac 0
scalar World.node[35].nic.mac1609_4 TooLittleTime 0
scalar World.node[35].nic.mac1609_4 TimesIntoBackoff 916
scalar World.node[35].nic.mac1609_4 SlotsBackoff 3953
scalar World.node[35].nic.mac1609_4 NumInternalContention 0
scalar World.node[35].nic.mac1609_4 totalBusyTime 4.461015
scalar World.node[35].nic.mac1609_4 retriesExceeded:count 0
attr source org_car2x_veins_modules_mac_sigRetriesExceeded
scalar World.node[35].nic.mac1609_4 sentAcks:count 0
attr source org_car2x_veins_modules_mac_sigSentAck
scalar World.node[35].nic.mac1609_4 sentPackets:count 879
attr source org_car2x_veins_modules_mac_sigSentPacket
scalar World.node[35].nic.mac1609_4 collisions:count 0
attr source org_car2x_veins_modules_mac_sigCollision
scalar World.node[35].nic.mac1609_4 channelBusy:timeavg 0.084522603149778
attr source org_car2x_veins_modules_mac_sigChannelBusy
scalar World.node[38].appl.middleware.DenService transmission:count 0
attr source DenmSent
scalar World.node[38].appl.middleware.DenService reception:count 16686
attr source DenmReceived
scalar World.node[38].nic.phy80211p busyTime 0.081190185062013
scalar World.node[38].nic.mac1609_4 ReceivedUnicastPackets 0
scalar World.node[38].nic.mac1609_4 ReceivedBroadcasts 18108
scalar World.node[38].nic.mac1609_4 SentPackets 779
scalar World.node[38].nic.mac1609_4 SentAcknowledgements 0
scalar World.node[38].nic.mac1609_4 RetriesExceeded 0
scalar World.node[38].nic.mac1609_4 SNIRLostPackets 266
scalar World.node[38].nic.mac1609_4 RXTXLostPackets 0
scalar World.node[38].nic.mac1609_4 TotalLostPackets 266
scalar World.node[38].nic.mac1609_4 DroppedPacketsInMac 0
scalar World.node[38].nic.mac1609_4 TooLittleTime 0
scalar World.node[38].nic.mac1609_4 TimesIntoBackoff 779
scalar World.node[38].nic.mac1609_4 SlotsBackoff 5720
scalar World.node[38].nic.mac1609_4 NumInternalContention 0
scalar World.node[38].nic.mac1609_4 totalBusyTime 3.937851
scalar World.node[38].nic.mac1609_4 retriesExceeded:count 0
attr source org_car2x_veins_modules_mac_sigRetriesExceeded
scalar World.node[38].nic.mac1609_4 sentAcks:count 0
attr source org_car2x_veins_modules_mac_sigSentAck
scalar World.node[38].nic.mac1609_4 sentPackets:count 779
attr source org_car2x_veins_modules_mac_sigSentPacket
scalar World.node[38].nic.mac1609_4 collisions:count 0
attr source org_car2x_veins_modules_mac_sigCollision
scalar World.node[38].nic.mac1609_4 channelBusy:timeavg 0.084179988649581
attr source org_car2x_veins_modules_mac_sigChannelBusy
scalar World.node[40].appl.middleware.DenService transmission:count 180
attr source DenmSent
scalar World.node[40].appl.middleware.DenService reception:count 14779
attr source DenmReceived
scalar World.node[40].nic.phy80211p busyTime 0.07986513805054
scalar World.node[40].nic.mac1609_4 ReceivedUnicastPackets 0
scalar World.node[40].nic.mac1609_4 ReceivedBroadcasts 16392
scalar World.node[40].nic.mac1609_4 SentPackets 712
scalar World.node[40].nic.mac1609_4 SentAcknowledgements 0
scalar World.node[40].nic.mac1609_4 RetriesExceeded 0
scalar World.node[40].nic.mac1609_4 SNIRLostPackets 100
scalar World.node[40].nic.mac1609_4 RXTXLostPackets 0
scalar World.node[40].nic.mac1609_4 TotalLostPackets 100
scalar World.node[40].nic.mac1609_4 DroppedPacketsInMac 0
scalar World.node[40].nic.mac1609_4 TooLittleTime 0
scalar World.node[40].nic.mac1609_4 TimesIntoBackoff 724
scalar World.node[40].nic.mac1609_4 SlotsBackoff 3201
scalar World.node[40].nic.mac1609_4 NumInternalContention 0
scalar World.node[40].nic.mac1609_4 totalBusyTime 3.552528
scalar World.node[40].nic.mac1609_4 retriesExceeded:count 0
attr source org_car2x_veins_modules_mac_sigRetriesExceeded
scalar World.node[40].nic.mac1609_4 sentAcks:count 0
attr source org_car2x_veins_modules_mac_sigSentAck
scalar World.node[40].nic.mac1609_4 sentPackets:count 712
attr source org_car2x_veins_modules_mac_sigSentPacket
scalar World.node[40].nic.mac1609_4 collisions:count 0
attr source org_car2x_veins_modules_mac_sigCollision
scalar World.node[40].nic.mac1609_4 channelBusy:timeavg 0.083043900362827
attr source org_car2x_veins_modules_mac_sigChannelBusy
scalar World.node[42].appl.middleware.DenService transmission:count 0
attr source DenmSent
scalar World.node[42].appl.middleware.DenService reception:count 13486
attr source DenmReceived
scalar World.node[42].nic.phy80211p busyTime 0.079484659822098
scalar World.node[42].nic.mac1609_4 ReceivedUnicastPackets 0
scalar World.node[42].nic.mac1609_4 ReceivedBroadcasts 14586
scalar World.node[42].nic.mac1609_4 SentPackets 646
scalar World.node[42].nic.mac1609_4 SentAcknowledgements 0
scalar World.node[42].nic.mac1609_4 RetriesExceeded 0
scalar World.node[42].nic.mac1609_4 SNIRLostPackets 321
scalar World.node[42].nic.mac1609_4 RXTXLostPackets 0
scalar World.node[42].nic.mac1609_4 TotalLostPackets 321
scalar World.node[42].nic.mac1609_4 DroppedPacketsInMac 0
scalar World.node[42].nic.mac1609_4 TooLittleTime 0
scalar World.node[42].nic.mac1609_4 TimesIntoBackoff 646
scalar World.node[42].nic.mac1609_4 SlotsBackoff 4868
scalar World.node[42].nic.mac1609_4 NumInternalContention 0
scalar World.node[42].nic.mac1609_4 totalBusyTime 3.18771
scalar World.node[42].nic.mac1609_4 retriesExceeded:count 0
attr source org_car2x_veins_modules_mac_sigRetriesExceeded
scalar World.node[42].nic.mac1609_4 sentAcks:count 0
attr source org_car2x_veins_modules_mac_sigSentAck
scalar World.node[42].nic.mac1609_4 sentPackets:count 646
attr source org_car2x_veins_modules_mac_sigSentPacket
scalar World.node[42].nic.mac1609_4 collisions:count 0
attr source org_car2x_veins_modules_mac_sigCollision
scalar World.node[42].nic.mac1609_4 channelBusy:timeavg 0.082197048181846
attr source org_car2x_veins_modules_mac_sigChannelBusy
scalar World.node[43].appl.middleware.DenService transmission:count 150
attr source DenmSent
scalar World.node[43].appl.middleware.DenService reception:count 12530
attr source DenmReceived
scalar World.node[43].nic.phy80211p busyTime 0.078901573609895
scalar World.node[43].nic.mac1609_4 ReceivedUnicastPackets 0
scalar World.node[43].nic.mac1609_4 ReceivedBroadcasts 13994
scalar World.node[43].nic.mac1609_4 SentPackets 612
scalar World.node[43].nic.mac1609_4 SentAcknowledgements 0
scalar World.node[43].nic.mac1609_4 RetriesExceeded 0
scalar World.node[43].nic.mac1609_4 SNIRLostPackets 4
scalar World.node[43].nic.mac1609_4 RXTXLostPackets 0
scalar World.node[43].nic.mac1609_4 TotalLostPackets 4
scalar World.node[43].nic.mac1609_4 DroppedPacketsInMac 0
scalar World.node[43].nic.mac1609_4 TooLittleTime 0
scalar World.node[43].nic.mac1609_4 TimesIntoBackoff 612
scalar World.node[43].nic.mac1609_4 SlotsBackoff 2834
scalar World.node[43].nic.mac1609_4 NumInternalContention 0
scalar World.node[43].nic.mac1609_4 totalBusyTime 3.02862
scalar World.node[43].nic.mac1609_4 retriesExceeded:count 0
attr source org_car2x_veins_modules_mac_sigRetriesExceeded
scalar World.node[43].nic.mac1609_4 sentAcks:count 0
attr source org_car2x_veins_modules_mac_sigSentAck
scalar World.node[43].nic.mac1609_4 sentPackets:count 612
attr source org_car2x_veins_modules_mac_sigSentPacket
scalar World.node[43].nic.mac1609_4 collisions:count 0
attr source org_car2x_veins_modules_mac_sigCollision
scalar World.node[43].nic.mac1609_4 channelBusy:timeavg 0.082341254436919
attr source org_car2x_veins_modules_mac_sigChannelBusy
scalar World.node[44].appl.middleware.DenService transmission:count 247
attr source DenmSent
scalar World.node[44].appl.middleware.DenService reception:count 11656
attr source DenmReceived
scalar World.node[44].nic.phy80211p busyTime 0.079671732634559
scalar World.node[44].nic.mac1609_4 ReceivedUnicastPackets 0
scalar World.node[44].nic.mac1609_4 ReceivedBroadcasts 13197
scalar World.node[44].nic.mac1609_4 SentPackets 579
scalar World.node[44].nic.mac1609_4 SentAcknowledgements 0
scalar World.node[44].nic.mac1609_4 RetriesExceeded 0
scalar World.node[44].nic.mac1609_4 SNIRLostPackets 176
scalar World.node[44].nic.mac1609_4 RXTXLostPackets 0
scalar World.node[44].nic.mac1609_4 TotalLostPackets 176
scalar World.node[44].nic.mac1609_4 DroppedPacketsInMac 0
scalar World.node[44].nic.mac1609_4 TooLittleTime 0
scalar World.node[44].nic.mac1609_4 TimesIntoBackoff 579
scalar World.node[44].nic.mac1609_4 SlotsBackoff 2696
scalar World.node[44].nic.mac1609_4 NumInternalContention 0
scalar World.node[44].nic.mac1609_4 totalBusyTime 2.872155
scalar World.node[44].nic.mac1609_4 retriesExceeded:count 0
attr source org_car2x_veins_modules_mac_sigRetriesExceeded
scalar World.node[44].nic.mac1609_4 sentAcks:count 0
attr source org_car2x_veins_modules_mac_sigSentAck
scalar World.node[44].nic.mac1609_4 sentPackets:count 579
attr source org_car2x_veins_modules_mac_sigSentPacket
scalar World.node[44].nic.mac1609_4 collisions:count 0
attr source org_car2x_veins_modules_mac_sigCollision
scalar World.node[44].nic.mac1609_4 channelBusy:timeavg 0.082583261180454
attr source org_car2x_veins_modules_mac_sigChannelBusy
scalar World.node[45].appl.middleware.DenService transmission:count 227
attr source DenmSent
scalar World.node[45].appl.middleware.DenService reception:count 11129
attr source DenmReceived
scalar World.node[45].nic.phy80211p busyTime 0.079981648933748
scalar World.node[45].nic.mac1609_4 ReceivedUnicastPackets 0
scalar World.node[45].nic.mac1609_4 ReceivedBroadcasts 12389
scalar World.node[45].nic.mac1609_4 SentPackets 546
scalar World.node[45].nic.mac1609_4 SentAcknowledgements 0
scalar World.node[45].nic.mac1609_4 RetriesExceeded 0
scalar World.node[45].nic.mac1609_4 SNIRLostPackets 268
scalar World.node[45].nic.mac1609_4 RXTXLostPackets 0
scalar World.node[45].nic.mac1609_4 TotalLostPackets 268
scalar World.node[45].nic.mac1609_4 DroppedPacketsInMac 0
scalar World.node[45].nic.mac1609_4 TooLittleTime 0
scalar World.node[45].nic.mac1609_4 TimesIntoBackoff 546
scalar World.node[45].nic.mac1609_4 SlotsBackoff 2507
scalar World.node[45].nic.mac1609_4 NumInternalContention 0
scalar World.node[45].nic.mac1609_4 totalBusyTime 2.705666
scalar World.node[45].nic.mac1609_4 retriesExceeded:count 0
attr source org_car2x_veins_modules_mac_sigRetriesExceeded
scalar World.node[45].nic.mac1609_4 sentAcks:count 0
attr source org_car2x_veins_modules_mac_sigSentAck
scalar World.node[45].nic.mac1609_4 sentPackets:count 546
attr source org_car2x_veins_modules_mac_sigSentPacket
scalar World.node[45].nic.mac1609_4 collisions:count 0
attr source org_car2x_veins_modules_mac_sigCollision
scalar World.node[45].nic.mac1609_4 channelBusy:timeavg 0.082536823676222
attr source org_car2x_veins_modules_mac_sigChannelBusy
scalar World.node[46].appl.middleware.DenService transmission:count 207
attr source DenmSent
scalar World.node[46].appl.middleware.DenService reception:count 10500
attr source DenmReceived
scalar World.node[46].nic.phy80211p busyTime 0.078959057878906
scalar World.node[46].nic.mac1609_4 ReceivedUnicastPackets 0
scalar World.node[46].nic.mac1609_4 ReceivedBroadcasts 11725
scalar World.node[46].nic.mac1609_4 SentPackets 512
scalar World.node[46].nic.mac1609_4 SentAcknowledgements 0
scalar World.node[46].nic.mac1609_4 RetriesExceeded 0
scalar World.node[46].nic.mac1609_4 SNIRLostPackets 0
scalar World.node[46].nic.mac1609_4 RXTXLostPackets 0
scalar World.node[46].nic.mac1609_4 TotalLostPackets 0
scalar World.node[46].nic.mac1609_4 DroppedPacketsInMac 0
scalar World.node[46].nic.mac1609_4 TooLittleTime 0
scalar World.node[46].nic.mac1609_4 TimesIntoBackoff 512
scalar World.node[46].nic.mac1609_4 SlotsBackoff 2436
scalar World.node[46].nic.mac1609_4 NumInternalContention 0
scalar World.node[46].nic.mac1609_4 totalBusyTime 2.536616
scalar World.node[46].nic.mac1609_4 retriesExceeded:count 0
attr source org_car2x_veins_modules_mac_sigRetriesExceeded
scalar World.node[46].nic.mac1609_4 sentAcks:count 0
attr source org_car2x_veins_modules_mac_sigSentAck
scalar World.node[46].nic.mac1609_4 sentPackets:count 512
attr source org_car2x_veins_modules_mac_sigSentPacket
scalar World.node[46].nic.mac1609_4 collisions:count 0
attr source org_car2x_veins_modules_mac_sigCollision
scalar World.node[46].nic.mac1609_4 channelBusy:timeavg 0.082407642968815
attr source org_car2x_veins_modules_mac_sigChannelBusy
scalar World.node[47].appl.middleware.DenService transmission:count 187
attr source DenmSent
scalar World.node[47].appl.middleware.DenService reception:count 9877
attr source DenmReceived
scalar World.node[47].nic.phy80211p busyTime 0.079351747161205
scalar World.node[47].nic.mac1609_4 ReceivedUnicastPackets 0
scalar World.node[47].nic.mac1609_4 ReceivedBroadcasts 11020
scalar World.node[47].nic.mac1609_4 SentPackets 479
scalar World.node[47].nic.mac1609_4 SentAcknowledgements 0
scalar World.node[47].nic.mac1609_4 RetriesExceeded 0
scalar World.node[47].nic.mac1609_4 SNIRLostPackets 0
scalar World.node[47].nic.mac1609_4 RXTXLostPackets 0
scalar World.node[47].nic.mac1609_4 TotalLostPackets 0
scalar World.node[47].nic.mac1609_4 DroppedPacketsInMac 0
scalar World.node[47].nic.mac1609_4 TooLittleTime 0
scalar World.node[47].nic.mac1609_4 TimesIntoBackoff 479
scalar World.node[47].nic.mac1609_4 SlotsBackoff 2243
scalar World.node[47].nic.mac1609_4 NumInternalContention 0
scalar World.node[47].nic.mac1609_4 totalBusyTime 2.383847
scalar World.node[47].nic.mac1609_4 retriesExceeded:count 0
attr source org_car2x_veins_modules_mac_sigRetriesExceeded
scalar World.node[47].nic.mac1609_4 sentAcks:count 0
attr source org_car2x_veins_modules_mac_sigSentAck
scalar World.node[47].nic.mac1609_4 sentPackets:count 479
attr source org_car2x_veins_modules_mac_sigSentPacket
scalar World.node[47].nic.mac1609_4 collisions:count 0
attr source org_car2x_veins_modules_mac_sigCollision
scalar World.node[47].nic.mac1609_4 channelBusy:timeavg 0.08283312887414
attr source org_car2x_veins_modules_mac_sigChannelBusy
scalar World.node[48].appl.middleware.DenService transmission:count 167
attr source DenmSent
scalar World.node[48].appl.middleware.DenService reception:count 9182
attr source DenmReceived
scalar World.node[48].nic.phy80211p busyTime 0.079487942627664
scalar World.node[48].nic.mac1609_4 ReceivedUnicastPackets 0
scalar World.node[48].nic.mac1609_4 ReceivedBroadcasts 10274
scalar World.node[48].nic.mac1609_4 SentPackets 446
scalar World.node[48].nic.mac1609_4 SentAcknowledgements 0
scalar World.node[48].nic.mac1609_4 RetriesExceeded 0
scalar World.node[48].nic.mac1609_4 SNIRLostPackets 0
scalar World.node[48].nic.mac1609_4 RXTXLostPackets 0
scalar World.node[48].nic.mac1609_4 TotalLostPackets 0
scalar World.node[48].nic.mac1609_4 DroppedPacketsInMac 0
scalar World.node[48].nic.mac1609_4 TooLittleTime 0
scalar World.node[48].nic.mac1609_4 TimesIntoBackoff 446
scalar World.node[48].nic.mac1609_4 SlotsBackoff 2238
scalar World.node[48].nic.mac1609_4 NumInternalContention 0
scalar World.node[48].nic.mac1609_4 totalBusyTime 2.222358
scalar World.node[48].nic.mac1609_4 retriesExceeded:count 0
attr source org_car2x_veins_modules_mac_sigRetriesExceeded
scalar World.node[48].nic.mac1609_4 sentAcks:count 0
attr source org_car2x_veins_modules_mac_sigSentAck
scalar World.node[48].nic.mac1609_4 sentPackets:count 446
attr source org_car2x_veins_modules_mac_sigSentPacket
scalar World.node[48].nic.mac1609_4 collisions:count 0
attr source org_car2x_veins_modules_mac_sigCollision
scalar World.node[48].nic.mac1609_4 channelBusy:timeavg 0.082989109729922
attr source org_car2x_veins_modules_mac_sigChannelBusy
scalar World.node[49].appl.middleware.DenService transmission:count 0
attr source DenmSent
scalar World.node[49].appl.middleware.DenService reception:count 8237
attr source DenmReceived
scalar World.node[49].nic.phy80211p busyTime 0.080885379959192
scalar World.node[49].nic.mac1609_4 ReceivedUnicastPackets 0
scalar World.node[49].nic.mac1609_4 ReceivedBroadcasts 8934
scalar World.node[49].nic.mac1609_4 SentPackets 392
scalar World.node[49].nic.mac1609_4 SentAcknowledgements 0
scalar World.node[49].nic.mac1609_4 RetriesExceeded 0
scalar World.node[49].nic.mac1609_4 SNIRLostPackets 292
scalar World.node[49].nic.mac1609_4 RXTXLostPackets 0
scalar World.node[49].nic.mac1609_4 TotalLostPackets 292
scalar World.node[49].nic.mac1609_4 DroppedPacketsInMac 0
scalar World.node[49].nic.mac1609_4 TooLittleTime 0
scalar World.node[49].nic.mac1609_4 TimesIntoBackoff 392
[...]
scalar World.node[50].nic.mac1609_4 NumInternalContention 0
scalar World.node[50].nic.mac1609_4 totalBusyTime 1.900579
scalar World.node[50].nic.mac1609_4 retriesExceeded:count 0
attr source org_car2x_veins_modules_mac_sigRetriesExceeded
scalar World.node[50].nic.mac1609_4 sentAcks:count 0
attr source org_car2x_veins_modules_mac_sigSentAck
scalar World.node[50].nic.mac1609_4 sentPackets:count 379
attr source org_car2x_veins_modules_mac_sigSentPacket
scalar World.node[50].nic.mac1609_4 collisions:count 0
attr source org_car2x_veins_modules_mac_sigCollision
scalar World.node[50].nic.mac1609_4 channelBusy:timeavg 0.08342708100424
attr source org_car2x_veins_modules_mac_sigChannelBusy
scalar World.node[51].appl.middleware.DenService transmission:count 107
attr source DenmSent
scalar World.node[51].appl.middleware.DenService reception:count 7173
attr source DenmReceived
scalar World.node[51].nic.phy80211p busyTime 0.081972850065233
scalar World.node[51].nic.mac1609_4 ReceivedUnicastPackets 0
scalar World.node[51].nic.mac1609_4 ReceivedBroadcasts 7873
scalar World.node[51].nic.mac1609_4 SentPackets 346
scalar World.node[51].nic.mac1609_4 SentAcknowledgements 0
scalar World.node[51].nic.mac1609_4 RetriesExceeded 0
scalar World.node[51].nic.mac1609_4 SNIRLostPackets 362
scalar World.node[51].nic.mac1609_4 RXTXLostPackets 0
scalar World.node[51].nic.mac1609_4 TotalLostPackets 362
scalar World.node[51].nic.mac1609_4 DroppedPacketsInMac 0
scalar World.node[51].nic.mac1609_4 TooLittleTime 0
scalar World.node[51].nic.mac1609_4 TimesIntoBackoff 346
scalar World.node[51].nic.mac1609_4 SlotsBackoff 1884
scalar World.node[51].nic.mac1609_4 NumInternalContention 0
scalar World.node[51].nic.mac1609_4 totalBusyTime 1.737826
scalar World.node[51].nic.mac1609_4 retriesExceeded:count 0
attr source org_car2x_veins_modules_mac_sigRetriesExceeded
scalar World.node[51].nic.mac1609_4 sentAcks:count 0
attr source org_car2x_veins_modules_mac_sigSentAck
scalar World.node[51].nic.mac1609_4 sentPackets:count 346
attr source org_car2x_veins_modules_mac_sigSentPacket
scalar World.node[51].nic.mac1609_4 collisions:count 0
attr source org_car2x_veins_modules_mac_sigCollision
scalar World.node[51].nic.mac1609_4 channelBusy:timeavg 0.083624429492072
attr source org_car2x_veins_modules_mac_sigChannelBusy
scalar World.node[52].appl.middleware.DenService transmission:count 77
attr source DenmSent
scalar World.node[52].appl.middleware.DenService reception:count 6667
attr source DenmReceived
scalar World.node[52].nic.phy80211p busyTime 0.080335568956179
scalar World.node[52].nic.mac1609_4 ReceivedUnicastPackets 0
scalar World.node[52].nic.mac1609_4 ReceivedBroadcasts 7288
scalar World.node[52].nic.mac1609_4 SentPackets 312
scalar World.node[52].nic.mac1609_4 SentAcknowledgements 0
scalar World.node[52].nic.mac1609_4 RetriesExceeded 0
scalar World.node[52].nic.mac1609_4 SNIRLostPackets 0
scalar World.node[52].nic.mac1609_4 RXTXLostPackets 0
scalar World.node[52].nic.mac1609_4 TotalLostPackets 0
scalar World.node[52].nic.mac1609_4 DroppedPacketsInMac 0
scalar World.node[52].nic.mac1609_4 TooLittleTime 0
scalar World.node[52].nic.mac1609_4 TimesIntoBackoff 312
scalar World.node[52].nic.mac1609_4 SlotsBackoff 1795
scalar World.node[52].nic.mac1609_4 NumInternalContention 0
scalar World.node[52].nic.mac1609_4 totalBusyTime 1.57444
scalar World.node[52].nic.mac1609_4 retriesExceeded:count 0
attr source org_car2x_veins_modules_mac_sigRetriesExceeded
scalar World.node[52].nic.mac1609_4 sentAcks:count 0
attr source org_car2x_veins_modules_mac_sigSentAck
scalar World.node[52].nic.mac1609_4 sentPackets:count 312
attr source org_car2x_veins_modules_mac_sigSentPacket
scalar World.node[52].nic.mac1609_4 collisions:count 0
attr source org_car2x_veins_modules_mac_sigCollision
scalar World.node[52].nic.mac1609_4 channelBusy:timeavg 0.083840739382773
attr source org_car2x_veins_modules_mac_sigChannelBusy
scalar World.node[53].appl.middleware.DenService transmission:count 66
attr source DenmSent
scalar World.node[53].appl.middleware.DenService reception:count 5781
attr source DenmReceived
scalar World.node[53].nic.phy80211p busyTime 0.081943019292123
scalar World.node[53].nic.mac1609_4 ReceivedUnicastPackets 0
scalar World.node[53].nic.mac1609_4 ReceivedBroadcasts 6328
scalar World.node[53].nic.mac1609_4 SentPackets 279
scalar World.node[53].nic.mac1609_4 SentAcknowledgements 0
scalar World.node[53].nic.mac1609_4 RetriesExceeded 0
scalar World.node[53].nic.mac1609_4 SNIRLostPackets 324
scalar World.node[53].nic.mac1609_4 RXTXLostPackets 0
scalar World.node[53].nic.mac1609_4 TotalLostPackets 324
scalar World.node[53].nic.mac1609_4 DroppedPacketsInMac 0
scalar World.node[53].nic.mac1609_4 TooLittleTime 0
scalar World.node[53].nic.mac1609_4 TimesIntoBackoff 279
scalar World.node[53].nic.mac1609_4 SlotsBackoff 1645
scalar World.node[53].nic.mac1609_4 NumInternalContention 0
scalar World.node[53].nic.mac1609_4 totalBusyTime 1.401135
scalar World.node[53].nic.mac1609_4 retriesExceeded:count 0
attr source org_car2x_veins_modules_mac_sigRetriesExceeded
scalar World.node[53].nic.mac1609_4 sentAcks:count 0
attr source org_car2x_veins_modules_mac_sigSentAck
scalar World.node[53].nic.mac1609_4 sentPackets:count 279
attr source org_car2x_veins_modules_mac_sigSentPacket
scalar World.node[53].nic.mac1609_4 collisions:count 0
attr source org_car2x_veins_modules_mac_sigCollision
scalar World.node[53].nic.mac1609_4 channelBusy:timeavg 0.083493731663943
attr source org_car2x_veins_modules_mac_sigChannelBusy
scalar World.node[54].appl.middleware.DenService transmission:count 47
attr source DenmSent
scalar World.node[54].appl.middleware.DenService reception:count 5145
attr source DenmReceived
scalar World.node[54].nic.phy80211p busyTime 0.079560420021921
scalar World.node[54].nic.mac1609_4 ReceivedUnicastPackets 0
scalar World.node[54].nic.mac1609_4 ReceivedBroadcasts 5682
scalar World.node[54].nic.mac1609_4 SentPackets 246
scalar World.node[54].nic.mac1609_4 SentAcknowledgements 0
scalar World.node[54].nic.mac1609_4 RetriesExceeded 0
scalar World.node[54].nic.mac1609_4 SNIRLostPackets 0
scalar World.node[54].nic.mac1609_4 RXTXLostPackets 0
scalar World.node[54].nic.mac1609_4 TotalLostPackets 0
scalar World.node[54].nic.mac1609_4 DroppedPacketsInMac 0
scalar World.node[54].nic.mac1609_4 TooLittleTime 0
scalar World.node[54].nic.mac1609_4 TimesIntoBackoff 246
scalar World.node[54].nic.mac1609_4 SlotsBackoff 1570
scalar World.node[54].nic.mac1609_4 NumInternalContention 0
scalar World.node[54].nic.mac1609_4 totalBusyTime 1.228926
scalar World.node[54].nic.mac1609_4 retriesExceeded:count 0
attr source org_car2x_veins_modules_mac_sigRetriesExceeded
scalar World.node[54].nic.mac1609_4 sentAcks:count 0
attr source org_car2x_veins_modules_mac_sigSentAck
scalar World.node[54].nic.mac1609_4 sentPackets:count 246
attr source org_car2x_veins_modules_mac_sigSentPacket
scalar World.node[54].nic.mac1609_4 collisions:count 0
attr source org_car2x_veins_modules_mac_sigCollision
scalar World.node[54].nic.mac1609_4 channelBusy:timeavg 0.08315398755122
attr source org_car2x_veins_modules_mac_sigChannelBusy
scalar World.node[55].appl.middleware.DenService transmission:count 27
attr source DenmSent
scalar World.node[55].appl.middleware.DenService reception:count 4466
attr source DenmReceived
scalar World.node[55].nic.phy80211p busyTime 0.078585938489877
scalar World.node[55].nic.mac1609_4 ReceivedUnicastPackets 0
scalar World.node[55].nic.mac1609_4 ReceivedBroadcasts 4851
scalar World.node[55].nic.mac1609_4 SentPackets 212
scalar World.node[55].nic.mac1609_4 SentAcknowledgements 0
scalar World.node[55].nic.mac1609_4 RetriesExceeded 0
scalar World.node[55].nic.mac1609_4 SNIRLostPackets 0
scalar World.node[55].nic.mac1609_4 RXTXLostPackets 0
scalar World.node[55].nic.mac1609_4 TotalLostPackets 0
scalar World.node[55].nic.mac1609_4 DroppedPacketsInMac 0
scalar World.node[55].nic.mac1609_4 TooLittleTime 0
scalar World.node[55].nic.mac1609_4 TimesIntoBackoff 212
scalar World.node[55].nic.mac1609_4 SlotsBackoff 1481
scalar World.node[55].nic.mac1609_4 NumInternalContention 0
scalar World.node[55].nic.mac1609_4 totalBusyTime 1.0507
scalar World.node[55].nic.mac1609_4 retriesExceeded:count 0
attr source org_car2x_veins_modules_mac_sigRetriesExceeded
scalar World.node[55].nic.mac1609_4 sentAcks:count 0
attr source org_car2x_veins_modules_mac_sigSentAck
scalar World.node[55].nic.mac1609_4 sentPackets:count 212
attr source org_car2x_veins_modules_mac_sigSentPacket
scalar World.node[55].nic.mac1609_4 collisions:count 0
attr source org_car2x_veins_modules_mac_sigCollision
scalar World.node[55].nic.mac1609_4 channelBusy:timeavg 0.082205908982702
attr source org_car2x_veins_modules_mac_sigChannelBusy
scalar World.node[56].appl.middleware.DenService transmission:count 6
attr source DenmSent
scalar World.node[56].appl.middleware.DenService reception:count 3716
attr source DenmReceived
scalar World.node[56].nic.phy80211p busyTime 0.077328567086592
scalar World.node[56].nic.mac1609_4 ReceivedUnicastPackets 0
scalar World.node[56].nic.mac1609_4 ReceivedBroadcasts 4023
scalar World.node[56].nic.mac1609_4 SentPackets 179
scalar World.node[56].nic.mac1609_4 SentAcknowledgements 0
scalar World.node[56].nic.mac1609_4 RetriesExceeded 0
scalar World.node[56].nic.mac1609_4 SNIRLostPackets 0
scalar World.node[56].nic.mac1609_4 RXTXLostPackets 0
scalar World.node[56].nic.mac1609_4 TotalLostPackets 0
scalar World.node[56].nic.mac1609_4 DroppedPacketsInMac 0
scalar World.node[56].nic.mac1609_4 TooLittleTime 0
scalar World.node[56].nic.mac1609_4 TimesIntoBackoff 209
scalar World.node[56].nic.mac1609_4 SlotsBackoff 1468
scalar World.node[56].nic.mac1609_4 NumInternalContention 0
scalar World.node[56].nic.mac1609_4 totalBusyTime 0.872739
scalar World.node[56].nic.mac1609_4 retriesExceeded:count 0
attr source org_car2x_veins_modules_mac_sigRetriesExceeded
scalar World.node[56].nic.mac1609_4 sentAcks:count 0
attr source org_car2x_veins_modules_mac_sigSentAck
scalar World.node[56].nic.mac1609_4 sentPackets:count 179
attr source org_car2x_veins_modules_mac_sigSentPacket
scalar World.node[56].nic.mac1609_4 collisions:count 0
attr source org_car2x_veins_modules_mac_sigCollision
scalar World.node[56].nic.mac1609_4 channelBusy:timeavg 0.080967710632098
attr source org_car2x_veins_modules_mac_sigChannelBusy
scalar World.node[57].appl.middleware.DenService transmission:count 0
attr source DenmSent
scalar World.node[57].appl.middleware.DenService reception:count 3019
attr source DenmReceived
scalar World.node[57].nic.phy80211p busyTime 0.077466260989229
scalar World.node[57].nic.mac1609_4 ReceivedUnicastPackets 0
scalar World.node[57].nic.mac1609_4 ReceivedBroadcasts 3284
scalar World.node[57].nic.mac1609_4 SentPackets 145
scalar World.node[57].nic.mac1609_4 SentAcknowledgements 0
scalar World.node[57].nic.mac1609_4 RetriesExceeded 0
scalar World.node[57].nic.mac1609_4 SNIRLostPackets 0
scalar World.node[57].nic.mac1609_4 RXTXLostPackets 0
scalar World.node[57].nic.mac1609_4 TotalLostPackets 0
scalar World.node[57].nic.mac1609_4 DroppedPacketsInMac 0
scalar World.node[57].nic.mac1609_4 TooLittleTime 0
scalar World.node[57].nic.mac1609_4 TimesIntoBackoff 145
scalar World.node[57].nic.mac1609_4 SlotsBackoff 1099
scalar World.node[57].nic.mac1609_4 NumInternalContention 0
scalar World.node[57].nic.mac1609_4 totalBusyTime 0.712121
scalar World.node[57].nic.mac1609_4 retriesExceeded:count 0
attr source org_car2x_veins_modules_mac_sigRetriesExceeded
scalar World.node[57].nic.mac1609_4 sentAcks:count 0
attr source org_car2x_veins_modules_mac_sigSentAck
scalar World.node[57].nic.mac1609_4 sentPackets:count 145
attr source org_car2x_veins_modules_mac_sigSentPacket
scalar World.node[57].nic.mac1609_4 collisions:count 0
attr source org_car2x_veins_modules_mac_sigCollision
scalar World.node[57].nic.mac1609_4 channelBusy:timeavg 0.081094986654893
attr source org_car2x_veins_modules_mac_sigChannelBusy
scalar World.node[58].appl.middleware.DenService transmission:count 0
attr source DenmSent
scalar World.node[58].appl.middleware.DenService reception:count 2340
attr source DenmReceived
scalar World.node[58].nic.phy80211p busyTime 0.077561304728727
scalar World.node[58].nic.mac1609_4 ReceivedUnicastPackets 0
scalar World.node[58].nic.mac1609_4 ReceivedBroadcasts 2541
scalar World.node[58].nic.mac1609_4 SentPackets 112
scalar World.node[58].nic.mac1609_4 SentAcknowledgements 0
scalar World.node[58].nic.mac1609_4 RetriesExceeded 0
scalar World.node[58].nic.mac1609_4 SNIRLostPackets 0
scalar World.node[58].nic.mac1609_4 RXTXLostPackets 0
scalar World.node[58].nic.mac1609_4 TotalLostPackets 0
scalar World.node[58].nic.mac1609_4 DroppedPacketsInMac 0
scalar World.node[58].nic.mac1609_4 TooLittleTime 0
scalar World.node[58].nic.mac1609_4 TimesIntoBackoff 112
scalar World.node[58].nic.mac1609_4 SlotsBackoff 866
scalar World.node[58].nic.mac1609_4 NumInternalContention 0
scalar World.node[58].nic.mac1609_4 totalBusyTime 0.550568
scalar World.node[58].nic.mac1609_4 retriesExceeded:count 0
attr source org_car2x_veins_modules_mac_sigRetriesExceeded
scalar World.node[58].nic.mac1609_4 sentAcks:count 0
attr source org_car2x_veins_modules_mac_sigSentAck
scalar World.node[58].nic.mac1609_4 sentPackets:count 112
attr source org_car2x_veins_modules_mac_sigSentPacket
scalar World.node[58].nic.mac1609_4 collisions:count 0
attr source org_car2x_veins_modules_mac_sigCollision
scalar World.node[58].nic.mac1609_4 channelBusy:timeavg 0.0812183566427
attr source org_car2x_veins_modules_mac_sigChannelBusy
scalar World.node[59].appl.middleware.DenService transmission:count 0
attr source DenmSent
scalar World.node[59].appl.middleware.DenService reception:count 1665
attr source DenmReceived
scalar World.node[59].nic.phy80211p busyTime 0.078441942243856
scalar World.node[59].nic.mac1609_4 ReceivedUnicastPackets 0
scalar World.node[59].nic.mac1609_4 ReceivedBroadcasts 1814
scalar World.node[59].nic.mac1609_4 SentPackets 79
scalar World.node[59].nic.mac1609_4 SentAcknowledgements 0
scalar World.node[59].nic.mac1609_4 RetriesExceeded 0
scalar World.node[59].nic.mac1609_4 SNIRLostPackets 0
scalar World.node[59].nic.mac1609_4 RXTXLostPackets 0
scalar World.node[59].nic.mac1609_4 TotalLostPackets 0
scalar World.node[59].nic.mac1609_4 DroppedPacketsInMac 0
scalar World.node[59].nic.mac1609_4 TooLittleTime 0
scalar World.node[59].nic.mac1609_4 TimesIntoBackoff 79
scalar World.node[59].nic.mac1609_4 SlotsBackoff 590
scalar World.node[59].nic.mac1609_4 NumInternalContention 0
scalar World.node[59].nic.mac1609_4 totalBusyTime 0.392367
scalar World.node[59].nic.mac1609_4 retriesExceeded:count 0
attr source org_car2x_veins_modules_mac_sigRetriesExceeded
scalar World.node[59].nic.mac1609_4 sentAcks:count 0
attr source org_car2x_veins_modules_mac_sigSentAck
scalar World.node[59].nic.mac1609_4 sentPackets:count 79
attr source org_car2x_veins_modules_mac_sigSentPacket
scalar World.node[59].nic.mac1609_4 collisions:count 0
attr source org_car2x_veins_modules_mac_sigCollision
scalar World.node[59].nic.mac1609_4 channelBusy:timeavg 0.08206249080776
attr source org_car2x_veins_modules_mac_sigChannelBusy
scalar World.node[60].appl.middleware.DenService transmission:count 0
attr source DenmSent
scalar World.node[60].appl.middleware.DenService reception:count 949
attr source DenmReceived
scalar World.node[60].nic.phy80211p busyTime 0.082565123295353
scalar World.node[60].nic.mac1609_4 ReceivedUnicastPackets 0
scalar World.node[60].nic.mac1609_4 ReceivedBroadcasts 1042
scalar World.node[60].nic.mac1609_4 SentPackets 46
scalar World.node[60].nic.mac1609_4 SentAcknowledgements 0
scalar World.node[60].nic.mac1609_4 RetriesExceeded 0
scalar World.node[60].nic.mac1609_4 SNIRLostPackets 72
scalar World.node[60].nic.mac1609_4 RXTXLostPackets 0
scalar World.node[60].nic.mac1609_4 TotalLostPackets 72
scalar World.node[60].nic.mac1609_4 DroppedPacketsInMac 0
scalar World.node[60].nic.mac1609_4 TooLittleTime 0
scalar World.node[60].nic.mac1609_4 TimesIntoBackoff 46
scalar World.node[60].nic.mac1609_4 SlotsBackoff 311
scalar World.node[60].nic.mac1609_4 NumInternalContention 0
scalar World.node[60].nic.mac1609_4 totalBusyTime 0.232446
scalar World.node[60].nic.mac1609_4 retriesExceeded:count 0
attr source org_car2x_veins_modules_mac_sigRetriesExceeded
scalar World.node[60].nic.mac1609_4 sentAcks:count 0
attr source org_car2x_veins_modules_mac_sigSentAck
scalar World.node[60].nic.mac1609_4 sentPackets:count 46
attr source org_car2x_veins_modules_mac_sigSentPacket
scalar World.node[60].nic.mac1609_4 collisions:count 0
attr source org_car2x_veins_modules_mac_sigCollision
scalar World.node[60].nic.mac1609_4 channelBusy:timeavg 0.083573996906078
attr source org_car2x_veins_modules_mac_sigChannelBusy
scalar World.node[61].appl.middleware.DenService transmission:count 0
attr source DenmSent
scalar World.node[61].appl.middleware.DenService reception:count 283
attr source DenmReceived
scalar World.node[61].nic.phy80211p busyTime 0.08230178240953
scalar World.node[61].nic.mac1609_4 ReceivedUnicastPackets 0
scalar World.node[61].nic.mac1609_4 ReceivedBroadcasts 313
scalar World.node[61].nic.mac1609_4 SentPackets 12
scalar World.node[61].nic.mac1609_4 SentAcknowledgements 0
scalar World.node[61].nic.mac1609_4 RetriesExceeded 0
scalar World.node[61].nic.mac1609_4 SNIRLostPackets 0
scalar World.node[61].nic.mac1609_4 RXTXLostPackets 0
scalar World.node[61].nic.mac1609_4 TotalLostPackets 0
scalar World.node[61].nic.mac1609_4 DroppedPacketsInMac 0
scalar World.node[61].nic.mac1609_4 TooLittleTime 0
scalar World.node[61].nic.mac1609_4 TimesIntoBackoff 12
scalar World.node[61].nic.mac1609_4 SlotsBackoff 70
scalar World.node[61].nic.mac1609_4 NumInternalContention 0
scalar World.node[61].nic.mac1609_4 totalBusyTime 0.06686
scalar World.node[61].nic.mac1609_4 retriesExceeded:count 0
attr source org_car2x_veins_modules_mac_sigRetriesExceeded
scalar World.node[61].nic.mac1609_4 sentAcks:count 0
attr source org_car2x_veins_modules_mac_sigSentAck
scalar World.node[61].nic.mac1609_4 sentPackets:count 12
attr source org_car2x_veins_modules_mac_sigSentPacket
scalar World.node[61].nic.mac1609_4 collisions:count 0
attr source org_car2x_veins_modules_mac_sigCollision
scalar World.node[61].nic.mac1609_4 channelBusy:timeavg 0.085573170749894
attr source org_car2x_veins_modules_mac_sigChannelBusy
scalar World.node[7].appl.middleware.DenService transmission:count 687
attr source DenmSent
scalar World.node[7].appl.middleware.DenService reception:count 20265
attr source DenmReceived
scalar World.node[7].nic.phy80211p busyTime 0.044321874522395
scalar World.node[7].nic.mac1609_4 ReceivedUnicastPackets 0
scalar World.node[7].nic.mac1609_4 ReceivedBroadcasts 23058
scalar World.node[7].nic.mac1609_4 SentPackets 1812
scalar World.node[7].nic.mac1609_4 SentAcknowledgements 0
scalar World.node[7].nic.mac1609_4 RetriesExceeded 0
scalar World.node[7].nic.mac1609_4 SNIRLostPackets 0
scalar World.node[7].nic.mac1609_4 RXTXLostPackets 0
scalar World.node[7].nic.mac1609_4 TotalLostPackets 0
scalar World.node[7].nic.mac1609_4 DroppedPacketsInMac 0
scalar World.node[7].nic.mac1609_4 TooLittleTime 0
scalar World.node[7].nic.mac1609_4 TimesIntoBackoff 1812
scalar World.node[7].nic.mac1609_4 SlotsBackoff 9179
scalar World.node[7].nic.mac1609_4 NumInternalContention 0
scalar World.node[7].nic.mac1609_4 totalBusyTime 5.198876
scalar World.node[7].nic.mac1609_4 retriesExceeded:count 0
attr source org_car2x_veins_modules_mac_sigRetriesExceeded
scalar World.node[7].nic.mac1609_4 sentAcks:count 0
attr source org_car2x_veins_modules_mac_sigSentAck
scalar World.node[7].nic.mac1609_4 sentPackets:count 1812
attr source org_car2x_veins_modules_mac_sigSentPacket
scalar World.node[7].nic.mac1609_4 collisions:count 0
attr source org_car2x_veins_modules_mac_sigCollision
scalar World.node[7].nic.mac1609_4 channelBusy:timeavg 0.047791992380934
attr source org_car2x_veins_modules_mac_sigChannelBusy

